[VMEM] WARNING: physical memory size is smaller than virtual memory size.

*** ChampSim Multicore Out-of-Order Simulator ***
Warmup Instructions: 50000000
Simulation Instructions: 100000000
Number of CPUs: 16
Page size: 4096

Off-chip DRAM Size: 16 GiB Channels: 1 Width: 64-bit Data Rate: 3205 MT/s
*** Reached end of trace: (4, "traces/canneal_big4.champsimtrace")
*** Reached end of trace: (14, "traces/canneal_big4.champsimtrace")
*** Reached end of trace: (9, "traces/canneal_big4.champsimtrace")
*** Reached end of trace: (3, "traces/canneal_big3.champsimtrace")
*** Reached end of trace: (8, "traces/canneal_big3.champsimtrace")
*** Reached end of trace: (13, "traces/canneal_big3.champsimtrace")
*** Reached end of trace: (7, "traces/canneal_big2.champsimtrace")
*** Reached end of trace: (2, "traces/canneal_big2.champsimtrace")
*** Reached end of trace: (12, "traces/canneal_big2.champsimtrace")
*** Reached end of trace: (10, "traces/canneal_big0.champsimtrace")
*** Reached end of trace: (0, "traces/canneal_big0.champsimtrace")
*** Reached end of trace: (15, "traces/canneal_big0.champsimtrace")
*** Reached end of trace: (5, "traces/canneal_big0.champsimtrace")
*** Reached end of trace: (4, "traces/canneal_big4.champsimtrace")
*** Reached end of trace: (14, "traces/canneal_big4.champsimtrace")
Heartbeat CPU 14 instructions: 10000001 cycles: 2503232 heartbeat IPC: 3.995 cumulative IPC: 3.995 (Simulation time: 00 hr 13 min 42 sec)
Heartbeat CPU 4 instructions: 10000001 cycles: 2503232 heartbeat IPC: 3.995 cumulative IPC: 3.995 (Simulation time: 00 hr 13 min 42 sec)
*** Reached end of trace: (9, "traces/canneal_big4.champsimtrace")
*** Reached end of trace: (3, "traces/canneal_big3.champsimtrace")
*** Reached end of trace: (8, "traces/canneal_big3.champsimtrace")
*** Reached end of trace: (13, "traces/canneal_big3.champsimtrace")
Heartbeat CPU 9 instructions: 10000001 cycles: 2503428 heartbeat IPC: 3.995 cumulative IPC: 3.995 (Simulation time: 00 hr 13 min 42 sec)
Heartbeat CPU 3 instructions: 10000001 cycles: 2503453 heartbeat IPC: 3.994 cumulative IPC: 3.994 (Simulation time: 00 hr 13 min 42 sec)
Heartbeat CPU 8 instructions: 10000001 cycles: 2503456 heartbeat IPC: 3.994 cumulative IPC: 3.994 (Simulation time: 00 hr 13 min 42 sec)
Heartbeat CPU 13 instructions: 10000001 cycles: 2503460 heartbeat IPC: 3.994 cumulative IPC: 3.994 (Simulation time: 00 hr 13 min 42 sec)
*** Reached end of trace: (7, "traces/canneal_big2.champsimtrace")
*** Reached end of trace: (2, "traces/canneal_big2.champsimtrace")
*** Reached end of trace: (12, "traces/canneal_big2.champsimtrace")
Heartbeat CPU 7 instructions: 10000001 cycles: 2503600 heartbeat IPC: 3.994 cumulative IPC: 3.994 (Simulation time: 00 hr 13 min 42 sec)
Heartbeat CPU 2 instructions: 10000001 cycles: 2503607 heartbeat IPC: 3.994 cumulative IPC: 3.994 (Simulation time: 00 hr 13 min 42 sec)
Heartbeat CPU 12 instructions: 10000001 cycles: 2503614 heartbeat IPC: 3.994 cumulative IPC: 3.994 (Simulation time: 00 hr 13 min 42 sec)
*** Reached end of trace: (4, "traces/canneal_big4.champsimtrace")
*** Reached end of trace: (14, "traces/canneal_big4.champsimtrace")
*** Reached end of trace: (9, "traces/canneal_big4.champsimtrace")
*** Reached end of trace: (3, "traces/canneal_big3.champsimtrace")
*** Reached end of trace: (8, "traces/canneal_big3.champsimtrace")
*** Reached end of trace: (13, "traces/canneal_big3.champsimtrace")
*** Reached end of trace: (7, "traces/canneal_big2.champsimtrace")
*** Reached end of trace: (2, "traces/canneal_big2.champsimtrace")
*** Reached end of trace: (12, "traces/canneal_big2.champsimtrace")
*** Reached end of trace: (10, "traces/canneal_big0.champsimtrace")
*** Reached end of trace: (0, "traces/canneal_big0.champsimtrace")
Heartbeat CPU 0 instructions: 10000003 cycles: 3968958 heartbeat IPC: 2.52 cumulative IPC: 2.52 (Simulation time: 00 hr 23 min 55 sec)
Heartbeat CPU 10 instructions: 10000003 cycles: 3968958 heartbeat IPC: 2.52 cumulative IPC: 2.52 (Simulation time: 00 hr 23 min 55 sec)
*** Reached end of trace: (15, "traces/canneal_big0.champsimtrace")
Heartbeat CPU 15 instructions: 10000003 cycles: 3969117 heartbeat IPC: 2.519 cumulative IPC: 2.519 (Simulation time: 00 hr 23 min 55 sec)
*** Reached end of trace: (5, "traces/canneal_big0.champsimtrace")
Heartbeat CPU 5 instructions: 10000003 cycles: 3975533 heartbeat IPC: 2.515 cumulative IPC: 2.515 (Simulation time: 00 hr 23 min 58 sec)
*** Reached end of trace: (1, "traces/canneal_big1.champsimtrace")
*** Reached end of trace: (11, "traces/canneal_big1.champsimtrace")
*** Reached end of trace: (6, "traces/canneal_big1.champsimtrace")
*** Reached end of trace: (4, "traces/canneal_big4.champsimtrace")
*** Reached end of trace: (14, "traces/canneal_big4.champsimtrace")
Heartbeat CPU 14 instructions: 20000001 cycles: 5003232 heartbeat IPC: 4 cumulative IPC: 3.997 (Simulation time: 00 hr 30 min 33 sec)
Heartbeat CPU 4 instructions: 20000001 cycles: 5003232 heartbeat IPC: 4 cumulative IPC: 3.997 (Simulation time: 00 hr 30 min 33 sec)
*** Reached end of trace: (9, "traces/canneal_big4.champsimtrace")
*** Reached end of trace: (3, "traces/canneal_big3.champsimtrace")
*** Reached end of trace: (8, "traces/canneal_big3.champsimtrace")
*** Reached end of trace: (13, "traces/canneal_big3.champsimtrace")
Heartbeat CPU 9 instructions: 20000001 cycles: 5003428 heartbeat IPC: 4 cumulative IPC: 3.997 (Simulation time: 00 hr 30 min 33 sec)
Heartbeat CPU 3 instructions: 20000001 cycles: 5003453 heartbeat IPC: 4 cumulative IPC: 3.997 (Simulation time: 00 hr 30 min 33 sec)
Heartbeat CPU 8 instructions: 20000001 cycles: 5003456 heartbeat IPC: 4 cumulative IPC: 3.997 (Simulation time: 00 hr 30 min 33 sec)
Heartbeat CPU 13 instructions: 20000001 cycles: 5003460 heartbeat IPC: 4 cumulative IPC: 3.997 (Simulation time: 00 hr 30 min 33 sec)
*** Reached end of trace: (7, "traces/canneal_big2.champsimtrace")
*** Reached end of trace: (2, "traces/canneal_big2.champsimtrace")
*** Reached end of trace: (12, "traces/canneal_big2.champsimtrace")
Heartbeat CPU 7 instructions: 20000001 cycles: 5003600 heartbeat IPC: 4 cumulative IPC: 3.997 (Simulation time: 00 hr 30 min 33 sec)
Heartbeat CPU 2 instructions: 20000001 cycles: 5003607 heartbeat IPC: 4 cumulative IPC: 3.997 (Simulation time: 00 hr 30 min 33 sec)
Heartbeat CPU 12 instructions: 20000001 cycles: 5003614 heartbeat IPC: 4 cumulative IPC: 3.997 (Simulation time: 00 hr 30 min 33 sec)
*** Reached end of trace: (10, "traces/canneal_big0.champsimtrace")
*** Reached end of trace: (0, "traces/canneal_big0.champsimtrace")
*** Reached end of trace: (15, "traces/canneal_big0.champsimtrace")
*** Reached end of trace: (5, "traces/canneal_big0.champsimtrace")
*** Reached end of trace: (4, "traces/canneal_big4.champsimtrace")
*** Reached end of trace: (14, "traces/canneal_big4.champsimtrace")
*** Reached end of trace: (9, "traces/canneal_big4.champsimtrace")
*** Reached end of trace: (3, "traces/canneal_big3.champsimtrace")
*** Reached end of trace: (8, "traces/canneal_big3.champsimtrace")
*** Reached end of trace: (13, "traces/canneal_big3.champsimtrace")
*** Reached end of trace: (7, "traces/canneal_big2.champsimtrace")
*** Reached end of trace: (2, "traces/canneal_big2.champsimtrace")
*** Reached end of trace: (12, "traces/canneal_big2.champsimtrace")
*** Reached end of trace: (11, "traces/canneal_big1.champsimtrace")
*** Reached end of trace: (1, "traces/canneal_big1.champsimtrace")
Heartbeat CPU 1 instructions: 10000002 cycles: 7114221 heartbeat IPC: 1.406 cumulative IPC: 1.406 (Simulation time: 00 hr 44 min 49 sec)
Heartbeat CPU 11 instructions: 10000002 cycles: 7114226 heartbeat IPC: 1.406 cumulative IPC: 1.406 (Simulation time: 00 hr 44 min 49 sec)
*** Reached end of trace: (6, "traces/canneal_big1.champsimtrace")
Heartbeat CPU 6 instructions: 10000002 cycles: 7123001 heartbeat IPC: 1.404 cumulative IPC: 1.404 (Simulation time: 00 hr 44 min 52 sec)
*** Reached end of trace: (4, "traces/canneal_big4.champsimtrace")
*** Reached end of trace: (14, "traces/canneal_big4.champsimtrace")
Heartbeat CPU 14 instructions: 30000001 cycles: 7503232 heartbeat IPC: 4 cumulative IPC: 3.998 (Simulation time: 00 hr 47 min 05 sec)
Heartbeat CPU 4 instructions: 30000001 cycles: 7503232 heartbeat IPC: 4 cumulative IPC: 3.998 (Simulation time: 00 hr 47 min 05 sec)
*** Reached end of trace: (9, "traces/canneal_big4.champsimtrace")
*** Reached end of trace: (3, "traces/canneal_big3.champsimtrace")
*** Reached end of trace: (8, "traces/canneal_big3.champsimtrace")
*** Reached end of trace: (13, "traces/canneal_big3.champsimtrace")
Heartbeat CPU 9 instructions: 30000001 cycles: 7503428 heartbeat IPC: 4 cumulative IPC: 3.998 (Simulation time: 00 hr 47 min 05 sec)
Heartbeat CPU 3 instructions: 30000001 cycles: 7503453 heartbeat IPC: 4 cumulative IPC: 3.998 (Simulation time: 00 hr 47 min 05 sec)
Heartbeat CPU 8 instructions: 30000001 cycles: 7503456 heartbeat IPC: 4 cumulative IPC: 3.998 (Simulation time: 00 hr 47 min 05 sec)
Heartbeat CPU 13 instructions: 30000001 cycles: 7503460 heartbeat IPC: 4 cumulative IPC: 3.998 (Simulation time: 00 hr 47 min 05 sec)
*** Reached end of trace: (7, "traces/canneal_big2.champsimtrace")
*** Reached end of trace: (2, "traces/canneal_big2.champsimtrace")
*** Reached end of trace: (12, "traces/canneal_big2.champsimtrace")
Heartbeat CPU 7 instructions: 30000001 cycles: 7503600 heartbeat IPC: 4 cumulative IPC: 3.998 (Simulation time: 00 hr 47 min 05 sec)
Heartbeat CPU 2 instructions: 30000001 cycles: 7503607 heartbeat IPC: 4 cumulative IPC: 3.998 (Simulation time: 00 hr 47 min 05 sec)
Heartbeat CPU 12 instructions: 30000001 cycles: 7503614 heartbeat IPC: 4 cumulative IPC: 3.998 (Simulation time: 00 hr 47 min 05 sec)
*** Reached end of trace: (10, "traces/canneal_big0.champsimtrace")
*** Reached end of trace: (0, "traces/canneal_big0.champsimtrace")
Heartbeat CPU 10 instructions: 20000006 cycles: 7811883 heartbeat IPC: 2.602 cumulative IPC: 2.56 (Simulation time: 00 hr 49 min 19 sec)
*** Reached end of trace: (15, "traces/canneal_big0.champsimtrace")
Heartbeat CPU 0 instructions: 20000006 cycles: 7811980 heartbeat IPC: 2.602 cumulative IPC: 2.56 (Simulation time: 00 hr 49 min 19 sec)
Heartbeat CPU 15 instructions: 20000006 cycles: 7812106 heartbeat IPC: 2.602 cumulative IPC: 2.56 (Simulation time: 00 hr 49 min 19 sec)
*** Reached end of trace: (5, "traces/canneal_big0.champsimtrace")
Heartbeat CPU 5 instructions: 20000006 cycles: 7831290 heartbeat IPC: 2.594 cumulative IPC: 2.554 (Simulation time: 00 hr 49 min 29 sec)
*** Reached end of trace: (4, "traces/canneal_big4.champsimtrace")
*** Reached end of trace: (14, "traces/canneal_big4.champsimtrace")
*** Reached end of trace: (9, "traces/canneal_big4.champsimtrace")
*** Reached end of trace: (3, "traces/canneal_big3.champsimtrace")
*** Reached end of trace: (8, "traces/canneal_big3.champsimtrace")
*** Reached end of trace: (13, "traces/canneal_big3.champsimtrace")
*** Reached end of trace: (7, "traces/canneal_big2.champsimtrace")
*** Reached end of trace: (2, "traces/canneal_big2.champsimtrace")
*** Reached end of trace: (12, "traces/canneal_big2.champsimtrace")
*** Reached end of trace: (10, "traces/canneal_big0.champsimtrace")
*** Reached end of trace: (0, "traces/canneal_big0.champsimtrace")
*** Reached end of trace: (15, "traces/canneal_big0.champsimtrace")
*** Reached end of trace: (5, "traces/canneal_big0.champsimtrace")
*** Reached end of trace: (11, "traces/canneal_big1.champsimtrace")
*** Reached end of trace: (1, "traces/canneal_big1.champsimtrace")
*** Reached end of trace: (6, "traces/canneal_big1.champsimtrace")
*** Reached end of trace: (4, "traces/canneal_big4.champsimtrace")
*** Reached end of trace: (14, "traces/canneal_big4.champsimtrace")
Heartbeat CPU 14 instructions: 40000001 cycles: 10003232 heartbeat IPC: 4 cumulative IPC: 3.999 (Simulation time: 01 hr 04 min 00 sec)
Heartbeat CPU 4 instructions: 40000001 cycles: 10003232 heartbeat IPC: 4 cumulative IPC: 3.999 (Simulation time: 01 hr 04 min 00 sec)
*** Reached end of trace: (9, "traces/canneal_big4.champsimtrace")
*** Reached end of trace: (3, "traces/canneal_big3.champsimtrace")
*** Reached end of trace: (8, "traces/canneal_big3.champsimtrace")
*** Reached end of trace: (13, "traces/canneal_big3.champsimtrace")
Heartbeat CPU 9 instructions: 40000001 cycles: 10003428 heartbeat IPC: 4 cumulative IPC: 3.999 (Simulation time: 01 hr 04 min 00 sec)
Heartbeat CPU 3 instructions: 40000001 cycles: 10003453 heartbeat IPC: 4 cumulative IPC: 3.999 (Simulation time: 01 hr 04 min 00 sec)
Heartbeat CPU 8 instructions: 40000001 cycles: 10003456 heartbeat IPC: 4 cumulative IPC: 3.999 (Simulation time: 01 hr 04 min 00 sec)
Heartbeat CPU 13 instructions: 40000001 cycles: 10003460 heartbeat IPC: 4 cumulative IPC: 3.999 (Simulation time: 01 hr 04 min 00 sec)
*** Reached end of trace: (7, "traces/canneal_big2.champsimtrace")
*** Reached end of trace: (2, "traces/canneal_big2.champsimtrace")
*** Reached end of trace: (12, "traces/canneal_big2.champsimtrace")
Heartbeat CPU 7 instructions: 40000001 cycles: 10003600 heartbeat IPC: 4 cumulative IPC: 3.999 (Simulation time: 01 hr 04 min 00 sec)
Heartbeat CPU 2 instructions: 40000001 cycles: 10003607 heartbeat IPC: 4 cumulative IPC: 3.999 (Simulation time: 01 hr 04 min 00 sec)
Heartbeat CPU 12 instructions: 40000001 cycles: 10003614 heartbeat IPC: 4 cumulative IPC: 3.999 (Simulation time: 01 hr 04 min 00 sec)
*** Reached end of trace: (4, "traces/canneal_big4.champsimtrace")
*** Reached end of trace: (14, "traces/canneal_big4.champsimtrace")
*** Reached end of trace: (9, "traces/canneal_big4.champsimtrace")
*** Reached end of trace: (3, "traces/canneal_big3.champsimtrace")
*** Reached end of trace: (8, "traces/canneal_big3.champsimtrace")
*** Reached end of trace: (13, "traces/canneal_big3.champsimtrace")
*** Reached end of trace: (7, "traces/canneal_big2.champsimtrace")
*** Reached end of trace: (2, "traces/canneal_big2.champsimtrace")
*** Reached end of trace: (12, "traces/canneal_big2.champsimtrace")
*** Reached end of trace: (10, "traces/canneal_big0.champsimtrace")
*** Reached end of trace: (0, "traces/canneal_big0.champsimtrace")
*** Reached end of trace: (15, "traces/canneal_big0.champsimtrace")
Heartbeat CPU 0 instructions: 30000009 cycles: 11654804 heartbeat IPC: 2.602 cumulative IPC: 2.574 (Simulation time: 01 hr 12 min 47 sec)
Heartbeat CPU 10 instructions: 30000009 cycles: 11654804 heartbeat IPC: 2.602 cumulative IPC: 2.574 (Simulation time: 01 hr 12 min 47 sec)
Heartbeat CPU 15 instructions: 30000009 cycles: 11655000 heartbeat IPC: 2.602 cumulative IPC: 2.574 (Simulation time: 01 hr 12 min 47 sec)
*** Reached end of trace: (5, "traces/canneal_big0.champsimtrace")
Heartbeat CPU 5 instructions: 30000009 cycles: 11686686 heartbeat IPC: 2.594 cumulative IPC: 2.567 (Simulation time: 01 hr 12 min 58 sec)
*** Reached end of trace: (4, "traces/canneal_big4.champsimtrace")
*** Reached end of trace: (14, "traces/canneal_big4.champsimtrace")
Heartbeat CPU 14 instructions: 50000001 cycles: 12503232 heartbeat IPC: 4 cumulative IPC: 3.999 (Simulation time: 01 hr 18 min 53 sec)
Heartbeat CPU 4 instructions: 50000001 cycles: 12503232 heartbeat IPC: 4 cumulative IPC: 3.999 (Simulation time: 01 hr 18 min 53 sec)
Warmup finished CPU 4 instructions: 50000001 cycles: 12503232 cumulative IPC: 3.999 (Simulation time: 01 hr 18 min 53 sec)
Warmup finished CPU 14 instructions: 50000001 cycles: 12503232 cumulative IPC: 3.999 (Simulation time: 01 hr 18 min 53 sec)
*** Reached end of trace: (9, "traces/canneal_big4.champsimtrace")
*** Reached end of trace: (3, "traces/canneal_big3.champsimtrace")
*** Reached end of trace: (8, "traces/canneal_big3.champsimtrace")
*** Reached end of trace: (13, "traces/canneal_big3.champsimtrace")
Heartbeat CPU 9 instructions: 50000001 cycles: 12503428 heartbeat IPC: 4 cumulative IPC: 3.999 (Simulation time: 01 hr 18 min 53 sec)
Warmup finished CPU 9 instructions: 50000001 cycles: 12503428 cumulative IPC: 3.999 (Simulation time: 01 hr 18 min 53 sec)
Heartbeat CPU 3 instructions: 50000001 cycles: 12503453 heartbeat IPC: 4 cumulative IPC: 3.999 (Simulation time: 01 hr 18 min 53 sec)
Warmup finished CPU 3 instructions: 50000001 cycles: 12503453 cumulative IPC: 3.999 (Simulation time: 01 hr 18 min 53 sec)
Heartbeat CPU 8 instructions: 50000001 cycles: 12503456 heartbeat IPC: 4 cumulative IPC: 3.999 (Simulation time: 01 hr 18 min 53 sec)
Warmup finished CPU 8 instructions: 50000001 cycles: 12503456 cumulative IPC: 3.999 (Simulation time: 01 hr 18 min 53 sec)
Heartbeat CPU 13 instructions: 50000001 cycles: 12503460 heartbeat IPC: 4 cumulative IPC: 3.999 (Simulation time: 01 hr 18 min 53 sec)
Warmup finished CPU 13 instructions: 50000001 cycles: 12503460 cumulative IPC: 3.999 (Simulation time: 01 hr 18 min 53 sec)
*** Reached end of trace: (7, "traces/canneal_big2.champsimtrace")
*** Reached end of trace: (2, "traces/canneal_big2.champsimtrace")
*** Reached end of trace: (12, "traces/canneal_big2.champsimtrace")
Heartbeat CPU 7 instructions: 50000001 cycles: 12503600 heartbeat IPC: 4 cumulative IPC: 3.999 (Simulation time: 01 hr 18 min 53 sec)
Warmup finished CPU 7 instructions: 50000001 cycles: 12503600 cumulative IPC: 3.999 (Simulation time: 01 hr 18 min 53 sec)
Heartbeat CPU 2 instructions: 50000001 cycles: 12503607 heartbeat IPC: 4 cumulative IPC: 3.999 (Simulation time: 01 hr 18 min 53 sec)
Warmup finished CPU 2 instructions: 50000001 cycles: 12503607 cumulative IPC: 3.999 (Simulation time: 01 hr 18 min 53 sec)
Heartbeat CPU 12 instructions: 50000001 cycles: 12503614 heartbeat IPC: 4 cumulative IPC: 3.999 (Simulation time: 01 hr 18 min 53 sec)
Warmup finished CPU 12 instructions: 50000001 cycles: 12503614 cumulative IPC: 3.999 (Simulation time: 01 hr 18 min 53 sec)
*** Reached end of trace: (11, "traces/canneal_big1.champsimtrace")
*** Reached end of trace: (1, "traces/canneal_big1.champsimtrace")
Heartbeat CPU 1 instructions: 20000004 cycles: 12798750 heartbeat IPC: 1.759 cumulative IPC: 1.563 (Simulation time: 01 hr 21 min 04 sec)
Heartbeat CPU 11 instructions: 20000004 cycles: 12798757 heartbeat IPC: 1.759 cumulative IPC: 1.563 (Simulation time: 01 hr 21 min 04 sec)
*** Reached end of trace: (6, "traces/canneal_big1.champsimtrace")
Heartbeat CPU 6 instructions: 20000004 cycles: 12834124 heartbeat IPC: 1.751 cumulative IPC: 1.558 (Simulation time: 01 hr 21 min 20 sec)
*** Reached end of trace: (10, "traces/canneal_big0.champsimtrace")
*** Reached end of trace: (0, "traces/canneal_big0.champsimtrace")
*** Reached end of trace: (15, "traces/canneal_big0.champsimtrace")
*** Reached end of trace: (5, "traces/canneal_big0.champsimtrace")
*** Reached end of trace: (4, "traces/canneal_big4.champsimtrace")
*** Reached end of trace: (14, "traces/canneal_big4.champsimtrace")
*** Reached end of trace: (9, "traces/canneal_big4.champsimtrace")
*** Reached end of trace: (3, "traces/canneal_big3.champsimtrace")
*** Reached end of trace: (8, "traces/canneal_big3.champsimtrace")
*** Reached end of trace: (13, "traces/canneal_big3.champsimtrace")
*** Reached end of trace: (7, "traces/canneal_big2.champsimtrace")
*** Reached end of trace: (2, "traces/canneal_big2.champsimtrace")
*** Reached end of trace: (12, "traces/canneal_big2.champsimtrace")
*** Reached end of trace: (4, "traces/canneal_big4.champsimtrace")
*** Reached end of trace: (14, "traces/canneal_big4.champsimtrace")
Heartbeat CPU 14 instructions: 60000001 cycles: 15003232 heartbeat IPC: 4 cumulative IPC: 3.999 (Simulation time: 01 hr 35 min 25 sec)
Heartbeat CPU 4 instructions: 60000001 cycles: 15003232 heartbeat IPC: 4 cumulative IPC: 3.999 (Simulation time: 01 hr 35 min 25 sec)
*** Reached end of trace: (9, "traces/canneal_big4.champsimtrace")
*** Reached end of trace: (3, "traces/canneal_big3.champsimtrace")
*** Reached end of trace: (8, "traces/canneal_big3.champsimtrace")
*** Reached end of trace: (13, "traces/canneal_big3.champsimtrace")
Heartbeat CPU 9 instructions: 60000001 cycles: 15003428 heartbeat IPC: 4 cumulative IPC: 3.999 (Simulation time: 01 hr 35 min 25 sec)
Heartbeat CPU 3 instructions: 60000001 cycles: 15003453 heartbeat IPC: 4 cumulative IPC: 3.999 (Simulation time: 01 hr 35 min 25 sec)
Heartbeat CPU 8 instructions: 60000001 cycles: 15003456 heartbeat IPC: 4 cumulative IPC: 3.999 (Simulation time: 01 hr 35 min 25 sec)
Heartbeat CPU 13 instructions: 60000001 cycles: 15003460 heartbeat IPC: 4 cumulative IPC: 3.999 (Simulation time: 01 hr 35 min 25 sec)
*** Reached end of trace: (7, "traces/canneal_big2.champsimtrace")
*** Reached end of trace: (2, "traces/canneal_big2.champsimtrace")
*** Reached end of trace: (12, "traces/canneal_big2.champsimtrace")
Heartbeat CPU 7 instructions: 60000001 cycles: 15003600 heartbeat IPC: 4 cumulative IPC: 3.999 (Simulation time: 01 hr 35 min 25 sec)
Heartbeat CPU 2 instructions: 60000001 cycles: 15003607 heartbeat IPC: 4 cumulative IPC: 3.999 (Simulation time: 01 hr 35 min 25 sec)
Heartbeat CPU 12 instructions: 60000001 cycles: 15003614 heartbeat IPC: 4 cumulative IPC: 3.999 (Simulation time: 01 hr 35 min 25 sec)
*** Reached end of trace: (10, "traces/canneal_big0.champsimtrace")
*** Reached end of trace: (0, "traces/canneal_big0.champsimtrace")
Heartbeat CPU 0 instructions: 40000012 cycles: 15497658 heartbeat IPC: 2.602 cumulative IPC: 2.581 (Simulation time: 01 hr 38 min 10 sec)
Heartbeat CPU 10 instructions: 40000012 cycles: 15497658 heartbeat IPC: 2.602 cumulative IPC: 2.581 (Simulation time: 01 hr 38 min 10 sec)
*** Reached end of trace: (15, "traces/canneal_big0.champsimtrace")
Heartbeat CPU 15 instructions: 40000012 cycles: 15497911 heartbeat IPC: 2.602 cumulative IPC: 2.581 (Simulation time: 01 hr 38 min 10 sec)
*** Reached end of trace: (5, "traces/canneal_big0.champsimtrace")
Heartbeat CPU 5 instructions: 40000012 cycles: 15542092 heartbeat IPC: 2.594 cumulative IPC: 2.574 (Simulation time: 01 hr 38 min 27 sec)
*** Reached end of trace: (11, "traces/canneal_big1.champsimtrace")
*** Reached end of trace: (1, "traces/canneal_big1.champsimtrace")
*** Reached end of trace: (6, "traces/canneal_big1.champsimtrace")
*** Reached end of trace: (4, "traces/canneal_big4.champsimtrace")
*** Reached end of trace: (14, "traces/canneal_big4.champsimtrace")
*** Reached end of trace: (9, "traces/canneal_big4.champsimtrace")
*** Reached end of trace: (3, "traces/canneal_big3.champsimtrace")
*** Reached end of trace: (8, "traces/canneal_big3.champsimtrace")
*** Reached end of trace: (13, "traces/canneal_big3.champsimtrace")
*** Reached end of trace: (7, "traces/canneal_big2.champsimtrace")
*** Reached end of trace: (2, "traces/canneal_big2.champsimtrace")
*** Reached end of trace: (12, "traces/canneal_big2.champsimtrace")
*** Reached end of trace: (10, "traces/canneal_big0.champsimtrace")
*** Reached end of trace: (0, "traces/canneal_big0.champsimtrace")
*** Reached end of trace: (15, "traces/canneal_big0.champsimtrace")
*** Reached end of trace: (5, "traces/canneal_big0.champsimtrace")
*** Reached end of trace: (4, "traces/canneal_big4.champsimtrace")
*** Reached end of trace: (14, "traces/canneal_big4.champsimtrace")
Heartbeat CPU 14 instructions: 70000001 cycles: 17503232 heartbeat IPC: 4 cumulative IPC: 3.999 (Simulation time: 01 hr 52 min 23 sec)
Heartbeat CPU 4 instructions: 70000001 cycles: 17503232 heartbeat IPC: 4 cumulative IPC: 3.999 (Simulation time: 01 hr 52 min 23 sec)
*** Reached end of trace: (9, "traces/canneal_big4.champsimtrace")
*** Reached end of trace: (3, "traces/canneal_big3.champsimtrace")
*** Reached end of trace: (8, "traces/canneal_big3.champsimtrace")
*** Reached end of trace: (13, "traces/canneal_big3.champsimtrace")
Heartbeat CPU 9 instructions: 70000001 cycles: 17503428 heartbeat IPC: 4 cumulative IPC: 3.999 (Simulation time: 01 hr 52 min 23 sec)
Heartbeat CPU 3 instructions: 70000001 cycles: 17503453 heartbeat IPC: 4 cumulative IPC: 3.999 (Simulation time: 01 hr 52 min 23 sec)
Heartbeat CPU 8 instructions: 70000001 cycles: 17503456 heartbeat IPC: 4 cumulative IPC: 3.999 (Simulation time: 01 hr 52 min 23 sec)
Heartbeat CPU 13 instructions: 70000001 cycles: 17503460 heartbeat IPC: 4 cumulative IPC: 3.999 (Simulation time: 01 hr 52 min 23 sec)
*** Reached end of trace: (7, "traces/canneal_big2.champsimtrace")
*** Reached end of trace: (2, "traces/canneal_big2.champsimtrace")
*** Reached end of trace: (12, "traces/canneal_big2.champsimtrace")
Heartbeat CPU 7 instructions: 70000001 cycles: 17503600 heartbeat IPC: 4 cumulative IPC: 3.999 (Simulation time: 01 hr 52 min 24 sec)
Heartbeat CPU 2 instructions: 70000001 cycles: 17503607 heartbeat IPC: 4 cumulative IPC: 3.999 (Simulation time: 01 hr 52 min 24 sec)
Heartbeat CPU 12 instructions: 70000001 cycles: 17503614 heartbeat IPC: 4 cumulative IPC: 3.999 (Simulation time: 01 hr 52 min 24 sec)
*** Reached end of trace: (11, "traces/canneal_big1.champsimtrace")
*** Reached end of trace: (1, "traces/canneal_big1.champsimtrace")
Heartbeat CPU 1 instructions: 30000004 cycles: 18483461 heartbeat IPC: 1.759 cumulative IPC: 1.623 (Simulation time: 01 hr 59 min 41 sec)
Heartbeat CPU 11 instructions: 30000004 cycles: 18483468 heartbeat IPC: 1.759 cumulative IPC: 1.623 (Simulation time: 01 hr 59 min 41 sec)
*** Reached end of trace: (6, "traces/canneal_big1.champsimtrace")
Heartbeat CPU 6 instructions: 30000004 cycles: 18553327 heartbeat IPC: 1.748 cumulative IPC: 1.617 (Simulation time: 02 hr 00 min 12 sec)
*** Reached end of trace: (4, "traces/canneal_big4.champsimtrace")
*** Reached end of trace: (14, "traces/canneal_big4.champsimtrace")
*** Reached end of trace: (9, "traces/canneal_big4.champsimtrace")
*** Reached end of trace: (3, "traces/canneal_big3.champsimtrace")
*** Reached end of trace: (8, "traces/canneal_big3.champsimtrace")
*** Reached end of trace: (13, "traces/canneal_big3.champsimtrace")
*** Reached end of trace: (7, "traces/canneal_big2.champsimtrace")
*** Reached end of trace: (2, "traces/canneal_big2.champsimtrace")
*** Reached end of trace: (12, "traces/canneal_big2.champsimtrace")
*** Reached end of trace: (10, "traces/canneal_big0.champsimtrace")
*** Reached end of trace: (0, "traces/canneal_big0.champsimtrace")
Warmup finished CPU 10 instructions: 50000000 cycles: 19340486 cumulative IPC: 2.585 (Simulation time: 02 hr 04 min 39 sec)
Heartbeat CPU 10 instructions: 50000015 cycles: 19340489 heartbeat IPC: 2.602 cumulative IPC: 2.585 (Simulation time: 02 hr 04 min 39 sec)
*** Reached end of trace: (15, "traces/canneal_big0.champsimtrace")
Warmup finished CPU 0 instructions: 50000000 cycles: 19340615 cumulative IPC: 2.585 (Simulation time: 02 hr 04 min 39 sec)
Heartbeat CPU 0 instructions: 50000015 cycles: 19340618 heartbeat IPC: 2.602 cumulative IPC: 2.585 (Simulation time: 02 hr 04 min 39 sec)
Warmup finished CPU 15 instructions: 50000000 cycles: 19340811 cumulative IPC: 2.585 (Simulation time: 02 hr 04 min 39 sec)
Heartbeat CPU 15 instructions: 50000015 cycles: 19340814 heartbeat IPC: 2.602 cumulative IPC: 2.585 (Simulation time: 02 hr 04 min 39 sec)
*** Reached end of trace: (5, "traces/canneal_big0.champsimtrace")
Warmup finished CPU 5 instructions: 50000000 cycles: 19397415 cumulative IPC: 2.578 (Simulation time: 02 hr 04 min 57 sec)
Heartbeat CPU 5 instructions: 50000015 cycles: 19397418 heartbeat IPC: 2.594 cumulative IPC: 2.578 (Simulation time: 02 hr 04 min 57 sec)
*** Reached end of trace: (4, "traces/canneal_big4.champsimtrace")
*** Reached end of trace: (14, "traces/canneal_big4.champsimtrace")
Heartbeat CPU 14 instructions: 80000001 cycles: 20003232 heartbeat IPC: 4 cumulative IPC: 3.999 (Simulation time: 02 hr 08 min 06 sec)
Heartbeat CPU 4 instructions: 80000001 cycles: 20003232 heartbeat IPC: 4 cumulative IPC: 3.999 (Simulation time: 02 hr 08 min 06 sec)
*** Reached end of trace: (9, "traces/canneal_big4.champsimtrace")
*** Reached end of trace: (3, "traces/canneal_big3.champsimtrace")
*** Reached end of trace: (8, "traces/canneal_big3.champsimtrace")
*** Reached end of trace: (13, "traces/canneal_big3.champsimtrace")
Heartbeat CPU 9 instructions: 80000001 cycles: 20003428 heartbeat IPC: 4 cumulative IPC: 3.999 (Simulation time: 02 hr 08 min 06 sec)
Heartbeat CPU 3 instructions: 80000001 cycles: 20003453 heartbeat IPC: 4 cumulative IPC: 3.999 (Simulation time: 02 hr 08 min 06 sec)
Heartbeat CPU 8 instructions: 80000001 cycles: 20003456 heartbeat IPC: 4 cumulative IPC: 3.999 (Simulation time: 02 hr 08 min 06 sec)
Heartbeat CPU 13 instructions: 80000001 cycles: 20003460 heartbeat IPC: 4 cumulative IPC: 3.999 (Simulation time: 02 hr 08 min 06 sec)
*** Reached end of trace: (7, "traces/canneal_big2.champsimtrace")
*** Reached end of trace: (2, "traces/canneal_big2.champsimtrace")
*** Reached end of trace: (12, "traces/canneal_big2.champsimtrace")
Heartbeat CPU 7 instructions: 80000001 cycles: 20003600 heartbeat IPC: 4 cumulative IPC: 3.999 (Simulation time: 02 hr 08 min 06 sec)
Heartbeat CPU 2 instructions: 80000001 cycles: 20003607 heartbeat IPC: 4 cumulative IPC: 3.999 (Simulation time: 02 hr 08 min 06 sec)
Heartbeat CPU 12 instructions: 80000001 cycles: 20003614 heartbeat IPC: 4 cumulative IPC: 3.999 (Simulation time: 02 hr 08 min 06 sec)
*** Reached end of trace: (4, "traces/canneal_big4.champsimtrace")
*** Reached end of trace: (14, "traces/canneal_big4.champsimtrace")
*** Reached end of trace: (9, "traces/canneal_big4.champsimtrace")
*** Reached end of trace: (3, "traces/canneal_big3.champsimtrace")
*** Reached end of trace: (8, "traces/canneal_big3.champsimtrace")
*** Reached end of trace: (13, "traces/canneal_big3.champsimtrace")
*** Reached end of trace: (7, "traces/canneal_big2.champsimtrace")
*** Reached end of trace: (2, "traces/canneal_big2.champsimtrace")
*** Reached end of trace: (12, "traces/canneal_big2.champsimtrace")
*** Reached end of trace: (10, "traces/canneal_big0.champsimtrace")
*** Reached end of trace: (0, "traces/canneal_big0.champsimtrace")
*** Reached end of trace: (15, "traces/canneal_big0.champsimtrace")
*** Reached end of trace: (5, "traces/canneal_big0.champsimtrace")
*** Reached end of trace: (11, "traces/canneal_big1.champsimtrace")
*** Reached end of trace: (1, "traces/canneal_big1.champsimtrace")
*** Reached end of trace: (6, "traces/canneal_big1.champsimtrace")
*** Reached end of trace: (4, "traces/canneal_big4.champsimtrace")
*** Reached end of trace: (14, "traces/canneal_big4.champsimtrace")
Heartbeat CPU 14 instructions: 90000001 cycles: 22503232 heartbeat IPC: 4 cumulative IPC: 3.999 (Simulation time: 02 hr 23 min 11 sec)
Heartbeat CPU 4 instructions: 90000001 cycles: 22503232 heartbeat IPC: 4 cumulative IPC: 3.999 (Simulation time: 02 hr 23 min 11 sec)
*** Reached end of trace: (9, "traces/canneal_big4.champsimtrace")
*** Reached end of trace: (3, "traces/canneal_big3.champsimtrace")
*** Reached end of trace: (8, "traces/canneal_big3.champsimtrace")
*** Reached end of trace: (13, "traces/canneal_big3.champsimtrace")
Heartbeat CPU 9 instructions: 90000001 cycles: 22503428 heartbeat IPC: 4 cumulative IPC: 3.999 (Simulation time: 02 hr 23 min 11 sec)
Heartbeat CPU 3 instructions: 90000001 cycles: 22503453 heartbeat IPC: 4 cumulative IPC: 3.999 (Simulation time: 02 hr 23 min 11 sec)
Heartbeat CPU 8 instructions: 90000001 cycles: 22503456 heartbeat IPC: 4 cumulative IPC: 3.999 (Simulation time: 02 hr 23 min 11 sec)
Heartbeat CPU 13 instructions: 90000001 cycles: 22503460 heartbeat IPC: 4 cumulative IPC: 3.999 (Simulation time: 02 hr 23 min 11 sec)
*** Reached end of trace: (7, "traces/canneal_big2.champsimtrace")
*** Reached end of trace: (2, "traces/canneal_big2.champsimtrace")
*** Reached end of trace: (12, "traces/canneal_big2.champsimtrace")
Heartbeat CPU 7 instructions: 90000001 cycles: 22503600 heartbeat IPC: 4 cumulative IPC: 3.999 (Simulation time: 02 hr 23 min 11 sec)
Heartbeat CPU 2 instructions: 90000001 cycles: 22503607 heartbeat IPC: 4 cumulative IPC: 3.999 (Simulation time: 02 hr 23 min 11 sec)
Heartbeat CPU 12 instructions: 90000001 cycles: 22503614 heartbeat IPC: 4 cumulative IPC: 3.999 (Simulation time: 02 hr 23 min 11 sec)
*** Reached end of trace: (10, "traces/canneal_big0.champsimtrace")
*** Reached end of trace: (0, "traces/canneal_big0.champsimtrace")
Heartbeat CPU 10 instructions: 60000018 cycles: 23183280 heartbeat IPC: 2.602 cumulative IPC: 2.588 (Simulation time: 02 hr 28 min 17 sec)
*** Reached end of trace: (15, "traces/canneal_big0.champsimtrace")
Heartbeat CPU 0 instructions: 60000018 cycles: 23183484 heartbeat IPC: 2.602 cumulative IPC: 2.588 (Simulation time: 02 hr 28 min 18 sec)
Heartbeat CPU 15 instructions: 60000018 cycles: 23183635 heartbeat IPC: 2.602 cumulative IPC: 2.588 (Simulation time: 02 hr 28 min 18 sec)
*** Reached end of trace: (5, "traces/canneal_big0.champsimtrace")
Heartbeat CPU 5 instructions: 60000018 cycles: 23252899 heartbeat IPC: 2.594 cumulative IPC: 2.58 (Simulation time: 02 hr 28 min 51 sec)
*** Reached end of trace: (4, "traces/canneal_big4.champsimtrace")
*** Reached end of trace: (14, "traces/canneal_big4.champsimtrace")
*** Reached end of trace: (9, "traces/canneal_big4.champsimtrace")
*** Reached end of trace: (3, "traces/canneal_big3.champsimtrace")
*** Reached end of trace: (8, "traces/canneal_big3.champsimtrace")
*** Reached end of trace: (13, "traces/canneal_big3.champsimtrace")
*** Reached end of trace: (7, "traces/canneal_big2.champsimtrace")
*** Reached end of trace: (2, "traces/canneal_big2.champsimtrace")
*** Reached end of trace: (12, "traces/canneal_big2.champsimtrace")
*** Reached end of trace: (11, "traces/canneal_big1.champsimtrace")
*** Reached end of trace: (1, "traces/canneal_big1.champsimtrace")
Heartbeat CPU 1 instructions: 40000006 cycles: 24168318 heartbeat IPC: 1.759 cumulative IPC: 1.655 (Simulation time: 02 hr 34 min 42 sec)
Heartbeat CPU 11 instructions: 40000006 cycles: 24168320 heartbeat IPC: 1.759 cumulative IPC: 1.655 (Simulation time: 02 hr 34 min 42 sec)
*** Reached end of trace: (6, "traces/canneal_big1.champsimtrace")
Heartbeat CPU 6 instructions: 40000006 cycles: 24274986 heartbeat IPC: 1.748 cumulative IPC: 1.648 (Simulation time: 02 hr 35 min 15 sec)
*** Reached end of trace: (4, "traces/canneal_big4.champsimtrace")
*** Reached end of trace: (14, "traces/canneal_big4.champsimtrace")
Heartbeat CPU 14 instructions: 100000001 cycles: 25003232 heartbeat IPC: 4 cumulative IPC: 3.999 (Simulation time: 02 hr 39 min 22 sec)
Heartbeat CPU 4 instructions: 100000001 cycles: 25003232 heartbeat IPC: 4 cumulative IPC: 3.999 (Simulation time: 02 hr 39 min 22 sec)
*** Reached end of trace: (9, "traces/canneal_big4.champsimtrace")
*** Reached end of trace: (3, "traces/canneal_big3.champsimtrace")
*** Reached end of trace: (8, "traces/canneal_big3.champsimtrace")
*** Reached end of trace: (13, "traces/canneal_big3.champsimtrace")
Heartbeat CPU 9 instructions: 100000001 cycles: 25003428 heartbeat IPC: 4 cumulative IPC: 3.999 (Simulation time: 02 hr 39 min 22 sec)
Heartbeat CPU 3 instructions: 100000001 cycles: 25003453 heartbeat IPC: 4 cumulative IPC: 3.999 (Simulation time: 02 hr 39 min 22 sec)
Heartbeat CPU 8 instructions: 100000001 cycles: 25003456 heartbeat IPC: 4 cumulative IPC: 3.999 (Simulation time: 02 hr 39 min 22 sec)
Heartbeat CPU 13 instructions: 100000001 cycles: 25003460 heartbeat IPC: 4 cumulative IPC: 3.999 (Simulation time: 02 hr 39 min 22 sec)
*** Reached end of trace: (7, "traces/canneal_big2.champsimtrace")
*** Reached end of trace: (2, "traces/canneal_big2.champsimtrace")
*** Reached end of trace: (12, "traces/canneal_big2.champsimtrace")
Heartbeat CPU 7 instructions: 100000001 cycles: 25003600 heartbeat IPC: 4 cumulative IPC: 3.999 (Simulation time: 02 hr 39 min 22 sec)
Heartbeat CPU 2 instructions: 100000001 cycles: 25003607 heartbeat IPC: 4 cumulative IPC: 3.999 (Simulation time: 02 hr 39 min 22 sec)
Heartbeat CPU 12 instructions: 100000001 cycles: 25003614 heartbeat IPC: 4 cumulative IPC: 3.999 (Simulation time: 02 hr 39 min 22 sec)
*** Reached end of trace: (10, "traces/canneal_big0.champsimtrace")
*** Reached end of trace: (0, "traces/canneal_big0.champsimtrace")
*** Reached end of trace: (15, "traces/canneal_big0.champsimtrace")
*** Reached end of trace: (5, "traces/canneal_big0.champsimtrace")
*** Reached end of trace: (4, "traces/canneal_big4.champsimtrace")
*** Reached end of trace: (14, "traces/canneal_big4.champsimtrace")
*** Reached end of trace: (9, "traces/canneal_big4.champsimtrace")
*** Reached end of trace: (3, "traces/canneal_big3.champsimtrace")
*** Reached end of trace: (8, "traces/canneal_big3.champsimtrace")
*** Reached end of trace: (13, "traces/canneal_big3.champsimtrace")
*** Reached end of trace: (7, "traces/canneal_big2.champsimtrace")
*** Reached end of trace: (2, "traces/canneal_big2.champsimtrace")
*** Reached end of trace: (12, "traces/canneal_big2.champsimtrace")
*** Reached end of trace: (11, "traces/canneal_big1.champsimtrace")
*** Reached end of trace: (1, "traces/canneal_big1.champsimtrace")
*** Reached end of trace: (10, "traces/canneal_big0.champsimtrace")
Heartbeat CPU 10 instructions: 70000021 cycles: 27026001 heartbeat IPC: 2.602 cumulative IPC: 2.59 (Simulation time: 02 hr 52 min 41 sec)
*** Reached end of trace: (0, "traces/canneal_big0.champsimtrace")
*** Reached end of trace: (15, "traces/canneal_big0.champsimtrace")
Heartbeat CPU 0 instructions: 70000021 cycles: 27026305 heartbeat IPC: 2.602 cumulative IPC: 2.59 (Simulation time: 02 hr 52 min 42 sec)
Heartbeat CPU 15 instructions: 70000021 cycles: 27026458 heartbeat IPC: 2.602 cumulative IPC: 2.59 (Simulation time: 02 hr 52 min 42 sec)
*** Reached end of trace: (5, "traces/canneal_big0.champsimtrace")
Heartbeat CPU 5 instructions: 70000021 cycles: 27108255 heartbeat IPC: 2.594 cumulative IPC: 2.582 (Simulation time: 02 hr 53 min 19 sec)
*** Reached end of trace: (6, "traces/canneal_big1.champsimtrace")
*** Reached end of trace: (4, "traces/canneal_big4.champsimtrace")
*** Reached end of trace: (14, "traces/canneal_big4.champsimtrace")
Heartbeat CPU 14 instructions: 110000001 cycles: 27503232 heartbeat IPC: 4 cumulative IPC: 4 (Simulation time: 02 hr 56 min 16 sec)
Heartbeat CPU 4 instructions: 110000001 cycles: 27503232 heartbeat IPC: 4 cumulative IPC: 4 (Simulation time: 02 hr 56 min 16 sec)
*** Reached end of trace: (9, "traces/canneal_big4.champsimtrace")
*** Reached end of trace: (3, "traces/canneal_big3.champsimtrace")
*** Reached end of trace: (8, "traces/canneal_big3.champsimtrace")
*** Reached end of trace: (13, "traces/canneal_big3.champsimtrace")
Heartbeat CPU 9 instructions: 110000001 cycles: 27503428 heartbeat IPC: 4 cumulative IPC: 4 (Simulation time: 02 hr 56 min 16 sec)
Heartbeat CPU 3 instructions: 110000001 cycles: 27503453 heartbeat IPC: 4 cumulative IPC: 3.999 (Simulation time: 02 hr 56 min 16 sec)
Heartbeat CPU 8 instructions: 110000001 cycles: 27503456 heartbeat IPC: 4 cumulative IPC: 3.999 (Simulation time: 02 hr 56 min 16 sec)
Heartbeat CPU 13 instructions: 110000001 cycles: 27503460 heartbeat IPC: 4 cumulative IPC: 3.999 (Simulation time: 02 hr 56 min 16 sec)
*** Reached end of trace: (7, "traces/canneal_big2.champsimtrace")
*** Reached end of trace: (2, "traces/canneal_big2.champsimtrace")
*** Reached end of trace: (12, "traces/canneal_big2.champsimtrace")
Heartbeat CPU 7 instructions: 110000001 cycles: 27503600 heartbeat IPC: 4 cumulative IPC: 3.999 (Simulation time: 02 hr 56 min 16 sec)
Heartbeat CPU 2 instructions: 110000001 cycles: 27503607 heartbeat IPC: 4 cumulative IPC: 3.999 (Simulation time: 02 hr 56 min 16 sec)
Heartbeat CPU 12 instructions: 110000001 cycles: 27503614 heartbeat IPC: 4 cumulative IPC: 3.999 (Simulation time: 02 hr 56 min 16 sec)
*** Reached end of trace: (4, "traces/canneal_big4.champsimtrace")
*** Reached end of trace: (14, "traces/canneal_big4.champsimtrace")
*** Reached end of trace: (9, "traces/canneal_big4.champsimtrace")
*** Reached end of trace: (3, "traces/canneal_big3.champsimtrace")
*** Reached end of trace: (8, "traces/canneal_big3.champsimtrace")
*** Reached end of trace: (13, "traces/canneal_big3.champsimtrace")
*** Reached end of trace: (7, "traces/canneal_big2.champsimtrace")
*** Reached end of trace: (2, "traces/canneal_big2.champsimtrace")
*** Reached end of trace: (12, "traces/canneal_big2.champsimtrace")
*** Reached end of trace: (10, "traces/canneal_big0.champsimtrace")
*** Reached end of trace: (0, "traces/canneal_big0.champsimtrace")
*** Reached end of trace: (15, "traces/canneal_big0.champsimtrace")
*** Reached end of trace: (5, "traces/canneal_big0.champsimtrace")
*** Reached end of trace: (11, "traces/canneal_big1.champsimtrace")
*** Reached end of trace: (1, "traces/canneal_big1.champsimtrace")
Warmup finished CPU 1 instructions: 50000000 cycles: 29853101 cumulative IPC: 1.675 (Simulation time: 03 hr 10 min 42 sec)
Warmup finished CPU 11 instructions: 50000000 cycles: 29853108 cumulative IPC: 1.675 (Simulation time: 03 hr 10 min 42 sec)
Heartbeat CPU 1 instructions: 50000008 cycles: 29853124 heartbeat IPC: 1.759 cumulative IPC: 1.675 (Simulation time: 03 hr 10 min 42 sec)
Heartbeat CPU 11 instructions: 50000008 cycles: 29853127 heartbeat IPC: 1.759 cumulative IPC: 1.675 (Simulation time: 03 hr 10 min 42 sec)
*** Reached end of trace: (6, "traces/canneal_big1.champsimtrace")
Warmup finished CPU 6 instructions: 50000000 cycles: 29997582 cumulative IPC: 1.667 (Simulation time: 03 hr 11 min 28 sec)
Warmup complete CPU 9 instructions: 119976617 cycles: 29997582 cumulative IPC: 4 (Simulation time: 03 hr 11 min 28 sec)
Warmup complete CPU 8 instructions: 119976505 cycles: 29997582 cumulative IPC: 4 (Simulation time: 03 hr 11 min 28 sec)
Warmup complete CPU 7 instructions: 119975929 cycles: 29997582 cumulative IPC: 4 (Simulation time: 03 hr 11 min 28 sec)
Warmup complete CPU 6 instructions: 50000000 cycles: 29997582 cumulative IPC: 1.667 (Simulation time: 03 hr 11 min 28 sec)
Warmup complete CPU 5 instructions: 77671019 cycles: 29997582 cumulative IPC: 2.589 (Simulation time: 03 hr 11 min 28 sec)
Warmup complete CPU 4 instructions: 119977401 cycles: 29997582 cumulative IPC: 4 (Simulation time: 03 hr 11 min 28 sec)
Warmup complete CPU 3 instructions: 119976517 cycles: 29997582 cumulative IPC: 4 (Simulation time: 03 hr 11 min 28 sec)
Warmup complete CPU 2 instructions: 119975901 cycles: 29997582 cumulative IPC: 4 (Simulation time: 03 hr 11 min 28 sec)
Warmup complete CPU 15 instructions: 77894359 cycles: 29997582 cumulative IPC: 2.597 (Simulation time: 03 hr 11 min 28 sec)
Warmup complete CPU 14 instructions: 119977401 cycles: 29997582 cumulative IPC: 4 (Simulation time: 03 hr 11 min 28 sec)
Warmup complete CPU 13 instructions: 119976489 cycles: 29997582 cumulative IPC: 4 (Simulation time: 03 hr 11 min 28 sec)
Warmup complete CPU 12 instructions: 119975873 cycles: 29997582 cumulative IPC: 4 (Simulation time: 03 hr 11 min 28 sec)
Warmup complete CPU 11 instructions: 50216901 cycles: 29997582 cumulative IPC: 1.674 (Simulation time: 03 hr 11 min 28 sec)
Warmup complete CPU 10 instructions: 77895649 cycles: 29997582 cumulative IPC: 2.597 (Simulation time: 03 hr 11 min 28 sec)
Warmup complete CPU 1 instructions: 50216913 cycles: 29997582 cumulative IPC: 1.674 (Simulation time: 03 hr 11 min 28 sec)
Warmup complete CPU 0 instructions: 77894789 cycles: 29997582 cumulative IPC: 2.597 (Simulation time: 03 hr 11 min 28 sec)
Heartbeat CPU 6 instructions: 50000008 cycles: 29998084 heartbeat IPC: 1.747 cumulative IPC: 0.01594 (Simulation time: 03 hr 11 min 29 sec)
*** Reached end of trace: (4, "traces/canneal_big4.champsimtrace")
*** Reached end of trace: (14, "traces/canneal_big4.champsimtrace")
Heartbeat CPU 14 instructions: 120000001 cycles: 30003232 heartbeat IPC: 4 cumulative IPC: 4 (Simulation time: 03 hr 11 min 30 sec)
Heartbeat CPU 4 instructions: 120000001 cycles: 30003232 heartbeat IPC: 4 cumulative IPC: 4 (Simulation time: 03 hr 11 min 30 sec)
*** Reached end of trace: (9, "traces/canneal_big4.champsimtrace")
*** Reached end of trace: (3, "traces/canneal_big3.champsimtrace")
*** Reached end of trace: (8, "traces/canneal_big3.champsimtrace")
*** Reached end of trace: (13, "traces/canneal_big3.champsimtrace")
Heartbeat CPU 9 instructions: 120000001 cycles: 30003428 heartbeat IPC: 4 cumulative IPC: 4 (Simulation time: 03 hr 11 min 30 sec)
Heartbeat CPU 3 instructions: 120000001 cycles: 30003453 heartbeat IPC: 4 cumulative IPC: 4 (Simulation time: 03 hr 11 min 30 sec)
Heartbeat CPU 8 instructions: 120000001 cycles: 30003456 heartbeat IPC: 4 cumulative IPC: 4 (Simulation time: 03 hr 11 min 30 sec)
Heartbeat CPU 13 instructions: 120000001 cycles: 30003460 heartbeat IPC: 4 cumulative IPC: 4 (Simulation time: 03 hr 11 min 30 sec)
*** Reached end of trace: (7, "traces/canneal_big2.champsimtrace")
*** Reached end of trace: (2, "traces/canneal_big2.champsimtrace")
*** Reached end of trace: (12, "traces/canneal_big2.champsimtrace")
Heartbeat CPU 7 instructions: 120000001 cycles: 30003600 heartbeat IPC: 4 cumulative IPC: 4 (Simulation time: 03 hr 11 min 30 sec)
Heartbeat CPU 2 instructions: 120000001 cycles: 30003607 heartbeat IPC: 4 cumulative IPC: 4 (Simulation time: 03 hr 11 min 30 sec)
Heartbeat CPU 12 instructions: 120000001 cycles: 30003614 heartbeat IPC: 4 cumulative IPC: 4 (Simulation time: 03 hr 11 min 30 sec)
*** Reached end of trace: (0, "traces/canneal_big0.champsimtrace")
*** Reached end of trace: (10, "traces/canneal_big0.champsimtrace")
*** Reached end of trace: (15, "traces/canneal_big0.champsimtrace")
Heartbeat CPU 0 instructions: 80000024 cycles: 30773297 heartbeat IPC: 2.669 cumulative IPC: 2.714 (Simulation time: 03 hr 15 min 26 sec)
Heartbeat CPU 10 instructions: 80000024 cycles: 30773298 heartbeat IPC: 2.669 cumulative IPC: 2.713 (Simulation time: 03 hr 15 min 26 sec)
Heartbeat CPU 15 instructions: 80000024 cycles: 30773300 heartbeat IPC: 2.669 cumulative IPC: 2.714 (Simulation time: 03 hr 15 min 26 sec)
*** Reached end of trace: (5, "traces/canneal_big0.champsimtrace")
Heartbeat CPU 5 instructions: 80000024 cycles: 30893975 heartbeat IPC: 2.642 cumulative IPC: 2.598 (Simulation time: 03 hr 16 min 04 sec)
*** Reached end of trace: (4, "traces/canneal_big4.champsimtrace")
*** Reached end of trace: (14, "traces/canneal_big4.champsimtrace")
*** Reached end of trace: (9, "traces/canneal_big4.champsimtrace")
*** Reached end of trace: (3, "traces/canneal_big3.champsimtrace")
*** Reached end of trace: (8, "traces/canneal_big3.champsimtrace")
*** Reached end of trace: (13, "traces/canneal_big3.champsimtrace")
*** Reached end of trace: (7, "traces/canneal_big2.champsimtrace")
*** Reached end of trace: (2, "traces/canneal_big2.champsimtrace")
*** Reached end of trace: (12, "traces/canneal_big2.champsimtrace")
*** Reached end of trace: (4, "traces/canneal_big4.champsimtrace")
*** Reached end of trace: (14, "traces/canneal_big4.champsimtrace")
Heartbeat CPU 14 instructions: 130000001 cycles: 32503232 heartbeat IPC: 4 cumulative IPC: 4 (Simulation time: 03 hr 27 min 54 sec)
Heartbeat CPU 4 instructions: 130000001 cycles: 32503232 heartbeat IPC: 4 cumulative IPC: 4 (Simulation time: 03 hr 27 min 54 sec)
*** Reached end of trace: (9, "traces/canneal_big4.champsimtrace")
*** Reached end of trace: (3, "traces/canneal_big3.champsimtrace")
*** Reached end of trace: (8, "traces/canneal_big3.champsimtrace")
*** Reached end of trace: (13, "traces/canneal_big3.champsimtrace")
Heartbeat CPU 9 instructions: 130000001 cycles: 32503428 heartbeat IPC: 4 cumulative IPC: 4 (Simulation time: 03 hr 27 min 54 sec)
Heartbeat CPU 3 instructions: 130000001 cycles: 32503453 heartbeat IPC: 4 cumulative IPC: 4 (Simulation time: 03 hr 27 min 54 sec)
Heartbeat CPU 8 instructions: 130000001 cycles: 32503456 heartbeat IPC: 4 cumulative IPC: 4 (Simulation time: 03 hr 27 min 54 sec)
Heartbeat CPU 13 instructions: 130000001 cycles: 32503460 heartbeat IPC: 4 cumulative IPC: 4 (Simulation time: 03 hr 27 min 54 sec)
*** Reached end of trace: (7, "traces/canneal_big2.champsimtrace")
*** Reached end of trace: (2, "traces/canneal_big2.champsimtrace")
*** Reached end of trace: (12, "traces/canneal_big2.champsimtrace")
Heartbeat CPU 7 instructions: 130000001 cycles: 32503600 heartbeat IPC: 4 cumulative IPC: 4 (Simulation time: 03 hr 27 min 54 sec)
Heartbeat CPU 2 instructions: 130000001 cycles: 32503607 heartbeat IPC: 4 cumulative IPC: 4 (Simulation time: 03 hr 27 min 54 sec)
Heartbeat CPU 12 instructions: 130000001 cycles: 32503614 heartbeat IPC: 4 cumulative IPC: 4 (Simulation time: 03 hr 27 min 54 sec)
*** Reached end of trace: (10, "traces/canneal_big0.champsimtrace")
*** Reached end of trace: (0, "traces/canneal_big0.champsimtrace")
*** Reached end of trace: (15, "traces/canneal_big0.champsimtrace")
*** Reached end of trace: (5, "traces/canneal_big0.champsimtrace")
*** Reached end of trace: (4, "traces/canneal_big4.champsimtrace")
*** Reached end of trace: (14, "traces/canneal_big4.champsimtrace")
*** Reached end of trace: (9, "traces/canneal_big4.champsimtrace")
*** Reached end of trace: (3, "traces/canneal_big3.champsimtrace")
*** Reached end of trace: (8, "traces/canneal_big3.champsimtrace")
*** Reached end of trace: (13, "traces/canneal_big3.champsimtrace")
*** Reached end of trace: (7, "traces/canneal_big2.champsimtrace")
*** Reached end of trace: (2, "traces/canneal_big2.champsimtrace")
*** Reached end of trace: (12, "traces/canneal_big2.champsimtrace")
*** Reached end of trace: (10, "traces/canneal_big0.champsimtrace")
*** Reached end of trace: (0, "traces/canneal_big0.champsimtrace")
*** Reached end of trace: (15, "traces/canneal_big0.champsimtrace")
Heartbeat CPU 0 instructions: 90000027 cycles: 34557207 heartbeat IPC: 2.643 cumulative IPC: 2.655 (Simulation time: 03 hr 41 min 19 sec)
Heartbeat CPU 10 instructions: 90000027 cycles: 34557207 heartbeat IPC: 2.643 cumulative IPC: 2.655 (Simulation time: 03 hr 41 min 19 sec)
Heartbeat CPU 15 instructions: 90000027 cycles: 34557208 heartbeat IPC: 2.643 cumulative IPC: 2.655 (Simulation time: 03 hr 41 min 19 sec)
*** Reached end of trace: (5, "traces/canneal_big0.champsimtrace")
Heartbeat CPU 5 instructions: 90000027 cycles: 34799041 heartbeat IPC: 2.561 cumulative IPC: 2.568 (Simulation time: 03 hr 43 min 09 sec)
*** Reached end of trace: (4, "traces/canneal_big4.champsimtrace")
*** Reached end of trace: (14, "traces/canneal_big4.champsimtrace")
Heartbeat CPU 14 instructions: 140000001 cycles: 35003232 heartbeat IPC: 4 cumulative IPC: 4 (Simulation time: 03 hr 44 min 36 sec)
Heartbeat CPU 4 instructions: 140000001 cycles: 35003232 heartbeat IPC: 4 cumulative IPC: 4 (Simulation time: 03 hr 44 min 36 sec)
*** Reached end of trace: (9, "traces/canneal_big4.champsimtrace")
*** Reached end of trace: (3, "traces/canneal_big3.champsimtrace")
*** Reached end of trace: (8, "traces/canneal_big3.champsimtrace")
*** Reached end of trace: (13, "traces/canneal_big3.champsimtrace")
Heartbeat CPU 9 instructions: 140000001 cycles: 35003428 heartbeat IPC: 4 cumulative IPC: 4 (Simulation time: 03 hr 44 min 36 sec)
Heartbeat CPU 3 instructions: 140000001 cycles: 35003453 heartbeat IPC: 4 cumulative IPC: 4 (Simulation time: 03 hr 44 min 36 sec)
Heartbeat CPU 8 instructions: 140000001 cycles: 35003456 heartbeat IPC: 4 cumulative IPC: 4 (Simulation time: 03 hr 44 min 36 sec)
Heartbeat CPU 13 instructions: 140000001 cycles: 35003460 heartbeat IPC: 4 cumulative IPC: 4 (Simulation time: 03 hr 44 min 36 sec)
*** Reached end of trace: (7, "traces/canneal_big2.champsimtrace")
*** Reached end of trace: (2, "traces/canneal_big2.champsimtrace")
*** Reached end of trace: (12, "traces/canneal_big2.champsimtrace")
Heartbeat CPU 7 instructions: 140000001 cycles: 35003600 heartbeat IPC: 4 cumulative IPC: 4 (Simulation time: 03 hr 44 min 36 sec)
Heartbeat CPU 2 instructions: 140000001 cycles: 35003607 heartbeat IPC: 4 cumulative IPC: 4 (Simulation time: 03 hr 44 min 36 sec)
Heartbeat CPU 12 instructions: 140000001 cycles: 35003614 heartbeat IPC: 4 cumulative IPC: 4 (Simulation time: 03 hr 44 min 36 sec)
*** Reached end of trace: (4, "traces/canneal_big4.champsimtrace")
*** Reached end of trace: (14, "traces/canneal_big4.champsimtrace")
*** Reached end of trace: (9, "traces/canneal_big4.champsimtrace")
*** Reached end of trace: (3, "traces/canneal_big3.champsimtrace")
*** Reached end of trace: (8, "traces/canneal_big3.champsimtrace")
*** Reached end of trace: (13, "traces/canneal_big3.champsimtrace")
*** Reached end of trace: (7, "traces/canneal_big2.champsimtrace")
*** Reached end of trace: (2, "traces/canneal_big2.champsimtrace")
*** Reached end of trace: (12, "traces/canneal_big2.champsimtrace")
*** Reached end of trace: (10, "traces/canneal_big0.champsimtrace")
*** Reached end of trace: (0, "traces/canneal_big0.champsimtrace")
*** Reached end of trace: (15, "traces/canneal_big0.champsimtrace")
*** Reached end of trace: (5, "traces/canneal_big0.champsimtrace")
*** Reached end of trace: (4, "traces/canneal_big4.champsimtrace")
*** Reached end of trace: (14, "traces/canneal_big4.champsimtrace")
Heartbeat CPU 14 instructions: 150000001 cycles: 37503232 heartbeat IPC: 4 cumulative IPC: 4 (Simulation time: 04 hr 01 min 31 sec)
Heartbeat CPU 4 instructions: 150000001 cycles: 37503232 heartbeat IPC: 4 cumulative IPC: 4 (Simulation time: 04 hr 01 min 31 sec)
*** Reached end of trace: (9, "traces/canneal_big4.champsimtrace")
*** Reached end of trace: (3, "traces/canneal_big3.champsimtrace")
*** Reached end of trace: (8, "traces/canneal_big3.champsimtrace")
*** Reached end of trace: (13, "traces/canneal_big3.champsimtrace")
Heartbeat CPU 9 instructions: 150000001 cycles: 37503428 heartbeat IPC: 4 cumulative IPC: 4 (Simulation time: 04 hr 01 min 32 sec)
Heartbeat CPU 3 instructions: 150000001 cycles: 37503453 heartbeat IPC: 4 cumulative IPC: 4 (Simulation time: 04 hr 01 min 32 sec)
Heartbeat CPU 8 instructions: 150000001 cycles: 37503456 heartbeat IPC: 4 cumulative IPC: 4 (Simulation time: 04 hr 01 min 32 sec)
Heartbeat CPU 13 instructions: 150000001 cycles: 37503460 heartbeat IPC: 4 cumulative IPC: 4 (Simulation time: 04 hr 01 min 32 sec)
*** Reached end of trace: (7, "traces/canneal_big2.champsimtrace")
*** Reached end of trace: (2, "traces/canneal_big2.champsimtrace")
*** Reached end of trace: (12, "traces/canneal_big2.champsimtrace")
Heartbeat CPU 7 instructions: 150000001 cycles: 37503600 heartbeat IPC: 4 cumulative IPC: 4 (Simulation time: 04 hr 01 min 32 sec)
Heartbeat CPU 2 instructions: 150000001 cycles: 37503607 heartbeat IPC: 4 cumulative IPC: 4 (Simulation time: 04 hr 01 min 32 sec)
Heartbeat CPU 12 instructions: 150000001 cycles: 37503614 heartbeat IPC: 4 cumulative IPC: 4 (Simulation time: 04 hr 01 min 32 sec)
*** Reached end of trace: (10, "traces/canneal_big0.champsimtrace")
*** Reached end of trace: (0, "traces/canneal_big0.champsimtrace")
*** Reached end of trace: (15, "traces/canneal_big0.champsimtrace")
Heartbeat CPU 0 instructions: 100000030 cycles: 38339815 heartbeat IPC: 2.644 cumulative IPC: 2.65 (Simulation time: 04 hr 06 min 22 sec)
Heartbeat CPU 10 instructions: 100000030 cycles: 38339815 heartbeat IPC: 2.644 cumulative IPC: 2.65 (Simulation time: 04 hr 06 min 22 sec)
Heartbeat CPU 15 instructions: 100000030 cycles: 38339816 heartbeat IPC: 2.644 cumulative IPC: 2.65 (Simulation time: 04 hr 06 min 22 sec)
*** Reached end of trace: (5, "traces/canneal_big0.champsimtrace")
Heartbeat CPU 5 instructions: 100000030 cycles: 38698757 heartbeat IPC: 2.564 cumulative IPC: 2.566 (Simulation time: 04 hr 08 min 36 sec)
*** Reached end of trace: (4, "traces/canneal_big4.champsimtrace")
*** Reached end of trace: (14, "traces/canneal_big4.champsimtrace")
*** Reached end of trace: (9, "traces/canneal_big4.champsimtrace")
*** Reached end of trace: (3, "traces/canneal_big3.champsimtrace")
*** Reached end of trace: (8, "traces/canneal_big3.champsimtrace")
*** Reached end of trace: (13, "traces/canneal_big3.champsimtrace")
*** Reached end of trace: (7, "traces/canneal_big2.champsimtrace")
*** Reached end of trace: (2, "traces/canneal_big2.champsimtrace")
*** Reached end of trace: (12, "traces/canneal_big2.champsimtrace")
*** Reached end of trace: (4, "traces/canneal_big4.champsimtrace")
*** Reached end of trace: (14, "traces/canneal_big4.champsimtrace")
Heartbeat CPU 14 instructions: 160000001 cycles: 40003232 heartbeat IPC: 4 cumulative IPC: 4 (Simulation time: 04 hr 16 min 11 sec)
Heartbeat CPU 4 instructions: 160000001 cycles: 40003232 heartbeat IPC: 4 cumulative IPC: 4 (Simulation time: 04 hr 16 min 11 sec)
*** Reached end of trace: (9, "traces/canneal_big4.champsimtrace")
*** Reached end of trace: (3, "traces/canneal_big3.champsimtrace")
*** Reached end of trace: (8, "traces/canneal_big3.champsimtrace")
*** Reached end of trace: (13, "traces/canneal_big3.champsimtrace")
Heartbeat CPU 9 instructions: 160000001 cycles: 40003428 heartbeat IPC: 4 cumulative IPC: 4 (Simulation time: 04 hr 16 min 11 sec)
Heartbeat CPU 3 instructions: 160000001 cycles: 40003453 heartbeat IPC: 4 cumulative IPC: 4 (Simulation time: 04 hr 16 min 11 sec)
Heartbeat CPU 8 instructions: 160000001 cycles: 40003456 heartbeat IPC: 4 cumulative IPC: 4 (Simulation time: 04 hr 16 min 11 sec)
Heartbeat CPU 13 instructions: 160000001 cycles: 40003460 heartbeat IPC: 4 cumulative IPC: 4 (Simulation time: 04 hr 16 min 11 sec)
*** Reached end of trace: (7, "traces/canneal_big2.champsimtrace")
*** Reached end of trace: (2, "traces/canneal_big2.champsimtrace")
*** Reached end of trace: (12, "traces/canneal_big2.champsimtrace")
Heartbeat CPU 7 instructions: 160000001 cycles: 40003600 heartbeat IPC: 4 cumulative IPC: 4 (Simulation time: 04 hr 16 min 11 sec)
Heartbeat CPU 2 instructions: 160000001 cycles: 40003607 heartbeat IPC: 4 cumulative IPC: 4 (Simulation time: 04 hr 16 min 11 sec)
Heartbeat CPU 12 instructions: 160000001 cycles: 40003614 heartbeat IPC: 4 cumulative IPC: 4 (Simulation time: 04 hr 16 min 11 sec)
*** Reached end of trace: (10, "traces/canneal_big0.champsimtrace")
*** Reached end of trace: (0, "traces/canneal_big0.champsimtrace")
*** Reached end of trace: (15, "traces/canneal_big0.champsimtrace")
*** Reached end of trace: (5, "traces/canneal_big0.champsimtrace")
*** Reached end of trace: (4, "traces/canneal_big4.champsimtrace")
*** Reached end of trace: (14, "traces/canneal_big4.champsimtrace")
*** Reached end of trace: (9, "traces/canneal_big4.champsimtrace")
*** Reached end of trace: (3, "traces/canneal_big3.champsimtrace")
*** Reached end of trace: (8, "traces/canneal_big3.champsimtrace")
*** Reached end of trace: (13, "traces/canneal_big3.champsimtrace")
*** Reached end of trace: (7, "traces/canneal_big2.champsimtrace")
*** Reached end of trace: (2, "traces/canneal_big2.champsimtrace")
*** Reached end of trace: (12, "traces/canneal_big2.champsimtrace")
*** Reached end of trace: (10, "traces/canneal_big0.champsimtrace")
*** Reached end of trace: (0, "traces/canneal_big0.champsimtrace")
*** Reached end of trace: (15, "traces/canneal_big0.champsimtrace")
Heartbeat CPU 0 instructions: 110000033 cycles: 42119672 heartbeat IPC: 2.646 cumulative IPC: 2.648 (Simulation time: 04 hr 29 min 55 sec)
Heartbeat CPU 10 instructions: 110000033 cycles: 42119672 heartbeat IPC: 2.646 cumulative IPC: 2.648 (Simulation time: 04 hr 29 min 55 sec)
Heartbeat CPU 15 instructions: 110000033 cycles: 42119673 heartbeat IPC: 2.646 cumulative IPC: 2.649 (Simulation time: 04 hr 29 min 55 sec)
*** Reached end of trace: (4, "traces/canneal_big4.champsimtrace")
*** Reached end of trace: (14, "traces/canneal_big4.champsimtrace")
Heartbeat CPU 14 instructions: 170000001 cycles: 42503232 heartbeat IPC: 4 cumulative IPC: 4 (Simulation time: 04 hr 32 min 14 sec)
Heartbeat CPU 4 instructions: 170000001 cycles: 42503232 heartbeat IPC: 4 cumulative IPC: 4 (Simulation time: 04 hr 32 min 14 sec)
*** Reached end of trace: (9, "traces/canneal_big4.champsimtrace")
*** Reached end of trace: (3, "traces/canneal_big3.champsimtrace")
*** Reached end of trace: (8, "traces/canneal_big3.champsimtrace")
*** Reached end of trace: (13, "traces/canneal_big3.champsimtrace")
Heartbeat CPU 9 instructions: 170000001 cycles: 42503428 heartbeat IPC: 4 cumulative IPC: 4 (Simulation time: 04 hr 32 min 14 sec)
Heartbeat CPU 3 instructions: 170000001 cycles: 42503453 heartbeat IPC: 4 cumulative IPC: 4 (Simulation time: 04 hr 32 min 14 sec)
Heartbeat CPU 8 instructions: 170000001 cycles: 42503456 heartbeat IPC: 4 cumulative IPC: 4 (Simulation time: 04 hr 32 min 14 sec)
Heartbeat CPU 13 instructions: 170000001 cycles: 42503460 heartbeat IPC: 4 cumulative IPC: 4 (Simulation time: 04 hr 32 min 14 sec)
*** Reached end of trace: (7, "traces/canneal_big2.champsimtrace")
*** Reached end of trace: (2, "traces/canneal_big2.champsimtrace")
*** Reached end of trace: (12, "traces/canneal_big2.champsimtrace")
Heartbeat CPU 7 instructions: 170000001 cycles: 42503600 heartbeat IPC: 4 cumulative IPC: 4 (Simulation time: 04 hr 32 min 14 sec)
Heartbeat CPU 2 instructions: 170000001 cycles: 42503607 heartbeat IPC: 4 cumulative IPC: 4 (Simulation time: 04 hr 32 min 14 sec)
Heartbeat CPU 12 instructions: 170000001 cycles: 42503614 heartbeat IPC: 4 cumulative IPC: 4 (Simulation time: 04 hr 32 min 14 sec)
*** Reached end of trace: (5, "traces/canneal_big0.champsimtrace")
Heartbeat CPU 5 instructions: 110000033 cycles: 42622658 heartbeat IPC: 2.548 cumulative IPC: 2.561 (Simulation time: 04 hr 32 min 49 sec)
*** Reached end of trace: (4, "traces/canneal_big4.champsimtrace")
*** Reached end of trace: (14, "traces/canneal_big4.champsimtrace")
*** Reached end of trace: (9, "traces/canneal_big4.champsimtrace")
*** Reached end of trace: (3, "traces/canneal_big3.champsimtrace")
*** Reached end of trace: (8, "traces/canneal_big3.champsimtrace")
*** Reached end of trace: (13, "traces/canneal_big3.champsimtrace")
*** Reached end of trace: (7, "traces/canneal_big2.champsimtrace")
*** Reached end of trace: (2, "traces/canneal_big2.champsimtrace")
*** Reached end of trace: (12, "traces/canneal_big2.champsimtrace")
*** Reached end of trace: (0, "traces/canneal_big0.champsimtrace")
*** Reached end of trace: (10, "traces/canneal_big0.champsimtrace")
*** Reached end of trace: (15, "traces/canneal_big0.champsimtrace")
*** Reached end of trace: (5, "traces/canneal_big0.champsimtrace")
*** Reached end of trace: (4, "traces/canneal_big4.champsimtrace")
*** Reached end of trace: (14, "traces/canneal_big4.champsimtrace")
Heartbeat CPU 14 instructions: 180000001 cycles: 45003232 heartbeat IPC: 4 cumulative IPC: 4 (Simulation time: 04 hr 49 min 30 sec)
Heartbeat CPU 4 instructions: 180000001 cycles: 45003232 heartbeat IPC: 4 cumulative IPC: 4 (Simulation time: 04 hr 49 min 30 sec)
*** Reached end of trace: (9, "traces/canneal_big4.champsimtrace")
*** Reached end of trace: (3, "traces/canneal_big3.champsimtrace")
*** Reached end of trace: (8, "traces/canneal_big3.champsimtrace")
*** Reached end of trace: (13, "traces/canneal_big3.champsimtrace")
Heartbeat CPU 9 instructions: 180000001 cycles: 45003428 heartbeat IPC: 4 cumulative IPC: 4 (Simulation time: 04 hr 49 min 30 sec)
Heartbeat CPU 3 instructions: 180000001 cycles: 45003453 heartbeat IPC: 4 cumulative IPC: 4 (Simulation time: 04 hr 49 min 30 sec)
Heartbeat CPU 8 instructions: 180000001 cycles: 45003456 heartbeat IPC: 4 cumulative IPC: 4 (Simulation time: 04 hr 49 min 30 sec)
Heartbeat CPU 13 instructions: 180000001 cycles: 45003460 heartbeat IPC: 4 cumulative IPC: 4 (Simulation time: 04 hr 49 min 30 sec)
*** Reached end of trace: (7, "traces/canneal_big2.champsimtrace")
*** Reached end of trace: (2, "traces/canneal_big2.champsimtrace")
*** Reached end of trace: (12, "traces/canneal_big2.champsimtrace")
Heartbeat CPU 7 instructions: 180000001 cycles: 45003600 heartbeat IPC: 4 cumulative IPC: 4 (Simulation time: 04 hr 49 min 30 sec)
Heartbeat CPU 2 instructions: 180000001 cycles: 45003607 heartbeat IPC: 4 cumulative IPC: 4 (Simulation time: 04 hr 49 min 30 sec)
Heartbeat CPU 12 instructions: 180000001 cycles: 45003614 heartbeat IPC: 4 cumulative IPC: 4 (Simulation time: 04 hr 49 min 30 sec)
*** Reached end of trace: (10, "traces/canneal_big0.champsimtrace")
*** Reached end of trace: (0, "traces/canneal_big0.champsimtrace")
*** Reached end of trace: (15, "traces/canneal_big0.champsimtrace")
Heartbeat CPU 0 instructions: 120000036 cycles: 45898409 heartbeat IPC: 2.646 cumulative IPC: 2.648 (Simulation time: 04 hr 54 min 50 sec)
Heartbeat CPU 10 instructions: 120000036 cycles: 45898409 heartbeat IPC: 2.646 cumulative IPC: 2.648 (Simulation time: 04 hr 54 min 50 sec)
Heartbeat CPU 15 instructions: 120000036 cycles: 45898410 heartbeat IPC: 2.646 cumulative IPC: 2.648 (Simulation time: 04 hr 54 min 50 sec)
*** Reached end of trace: (4, "traces/canneal_big4.champsimtrace")
*** Reached end of trace: (14, "traces/canneal_big4.champsimtrace")
*** Reached end of trace: (9, "traces/canneal_big4.champsimtrace")
*** Reached end of trace: (3, "traces/canneal_big3.champsimtrace")
*** Reached end of trace: (8, "traces/canneal_big3.champsimtrace")
*** Reached end of trace: (13, "traces/canneal_big3.champsimtrace")
*** Reached end of trace: (7, "traces/canneal_big2.champsimtrace")
*** Reached end of trace: (2, "traces/canneal_big2.champsimtrace")
*** Reached end of trace: (12, "traces/canneal_big2.champsimtrace")
*** Reached end of trace: (5, "traces/canneal_big0.champsimtrace")
Heartbeat CPU 5 instructions: 120000036 cycles: 46548404 heartbeat IPC: 2.547 cumulative IPC: 2.558 (Simulation time: 04 hr 58 min 39 sec)
*** Reached end of trace: (11, "traces/canneal_big1.champsimtrace")
*** Reached end of trace: (1, "traces/canneal_big1.champsimtrace")
*** Reached end of trace: (4, "traces/canneal_big4.champsimtrace")
*** Reached end of trace: (14, "traces/canneal_big4.champsimtrace")
Heartbeat CPU 14 instructions: 190000001 cycles: 47503232 heartbeat IPC: 4 cumulative IPC: 4 (Simulation time: 05 hr 03 min 45 sec)
Heartbeat CPU 4 instructions: 190000001 cycles: 47503232 heartbeat IPC: 4 cumulative IPC: 4 (Simulation time: 05 hr 03 min 45 sec)
*** Reached end of trace: (9, "traces/canneal_big4.champsimtrace")
*** Reached end of trace: (3, "traces/canneal_big3.champsimtrace")
*** Reached end of trace: (8, "traces/canneal_big3.champsimtrace")
*** Reached end of trace: (13, "traces/canneal_big3.champsimtrace")
Heartbeat CPU 9 instructions: 190000001 cycles: 47503428 heartbeat IPC: 4 cumulative IPC: 4 (Simulation time: 05 hr 03 min 45 sec)
Heartbeat CPU 3 instructions: 190000001 cycles: 47503453 heartbeat IPC: 4 cumulative IPC: 4 (Simulation time: 05 hr 03 min 45 sec)
Heartbeat CPU 8 instructions: 190000001 cycles: 47503456 heartbeat IPC: 4 cumulative IPC: 4 (Simulation time: 05 hr 03 min 45 sec)
Heartbeat CPU 13 instructions: 190000001 cycles: 47503460 heartbeat IPC: 4 cumulative IPC: 4 (Simulation time: 05 hr 03 min 45 sec)
*** Reached end of trace: (7, "traces/canneal_big2.champsimtrace")
*** Reached end of trace: (2, "traces/canneal_big2.champsimtrace")
*** Reached end of trace: (12, "traces/canneal_big2.champsimtrace")
Heartbeat CPU 7 instructions: 190000001 cycles: 47503600 heartbeat IPC: 4 cumulative IPC: 4 (Simulation time: 05 hr 03 min 45 sec)
Heartbeat CPU 2 instructions: 190000001 cycles: 47503607 heartbeat IPC: 4 cumulative IPC: 4 (Simulation time: 05 hr 03 min 45 sec)
Heartbeat CPU 12 instructions: 190000001 cycles: 47503614 heartbeat IPC: 4 cumulative IPC: 4 (Simulation time: 05 hr 03 min 45 sec)
*** Reached end of trace: (0, "traces/canneal_big0.champsimtrace")
*** Reached end of trace: (10, "traces/canneal_big0.champsimtrace")
*** Reached end of trace: (15, "traces/canneal_big0.champsimtrace")
*** Reached end of trace: (6, "traces/canneal_big1.champsimtrace")
*** Reached end of trace: (5, "traces/canneal_big0.champsimtrace")
*** Reached end of trace: (4, "traces/canneal_big4.champsimtrace")
*** Reached end of trace: (14, "traces/canneal_big4.champsimtrace")
*** Reached end of trace: (9, "traces/canneal_big4.champsimtrace")
*** Reached end of trace: (3, "traces/canneal_big3.champsimtrace")
*** Reached end of trace: (8, "traces/canneal_big3.champsimtrace")
*** Reached end of trace: (13, "traces/canneal_big3.champsimtrace")
*** Reached end of trace: (7, "traces/canneal_big2.champsimtrace")
*** Reached end of trace: (2, "traces/canneal_big2.champsimtrace")
*** Reached end of trace: (12, "traces/canneal_big2.champsimtrace")
*** Reached end of trace: (10, "traces/canneal_big0.champsimtrace")
*** Reached end of trace: (0, "traces/canneal_big0.champsimtrace")
*** Reached end of trace: (15, "traces/canneal_big0.champsimtrace")
Heartbeat CPU 0 instructions: 130000039 cycles: 49678330 heartbeat IPC: 2.646 cumulative IPC: 2.648 (Simulation time: 05 hr 18 min 16 sec)
Heartbeat CPU 10 instructions: 130000039 cycles: 49678330 heartbeat IPC: 2.646 cumulative IPC: 2.647 (Simulation time: 05 hr 18 min 16 sec)
Heartbeat CPU 15 instructions: 130000039 cycles: 49678331 heartbeat IPC: 2.646 cumulative IPC: 2.648 (Simulation time: 05 hr 18 min 16 sec)
*** Reached end of trace: (4, "traces/canneal_big4.champsimtrace")
*** Reached end of trace: (14, "traces/canneal_big4.champsimtrace")
Heartbeat CPU 14 instructions: 200000001 cycles: 50003232 heartbeat IPC: 4 cumulative IPC: 4 (Simulation time: 05 hr 20 min 36 sec)
Heartbeat CPU 4 instructions: 200000001 cycles: 50003232 heartbeat IPC: 4 cumulative IPC: 4 (Simulation time: 05 hr 20 min 36 sec)
*** Reached end of trace: (9, "traces/canneal_big4.champsimtrace")
*** Reached end of trace: (3, "traces/canneal_big3.champsimtrace")
*** Reached end of trace: (8, "traces/canneal_big3.champsimtrace")
*** Reached end of trace: (13, "traces/canneal_big3.champsimtrace")
Heartbeat CPU 9 instructions: 200000001 cycles: 50003428 heartbeat IPC: 4 cumulative IPC: 4 (Simulation time: 05 hr 20 min 36 sec)
Heartbeat CPU 3 instructions: 200000001 cycles: 50003453 heartbeat IPC: 4 cumulative IPC: 4 (Simulation time: 05 hr 20 min 36 sec)
Heartbeat CPU 8 instructions: 200000001 cycles: 50003456 heartbeat IPC: 4 cumulative IPC: 4 (Simulation time: 05 hr 20 min 36 sec)
Heartbeat CPU 13 instructions: 200000001 cycles: 50003460 heartbeat IPC: 4 cumulative IPC: 4 (Simulation time: 05 hr 20 min 36 sec)
*** Reached end of trace: (7, "traces/canneal_big2.champsimtrace")
*** Reached end of trace: (2, "traces/canneal_big2.champsimtrace")
*** Reached end of trace: (12, "traces/canneal_big2.champsimtrace")
Heartbeat CPU 7 instructions: 200000001 cycles: 50003600 heartbeat IPC: 4 cumulative IPC: 4 (Simulation time: 05 hr 20 min 37 sec)
Heartbeat CPU 2 instructions: 200000001 cycles: 50003607 heartbeat IPC: 4 cumulative IPC: 4 (Simulation time: 05 hr 20 min 37 sec)
Heartbeat CPU 12 instructions: 200000001 cycles: 50003614 heartbeat IPC: 4 cumulative IPC: 4 (Simulation time: 05 hr 20 min 37 sec)
*** Reached end of trace: (5, "traces/canneal_big0.champsimtrace")
Heartbeat CPU 5 instructions: 130000039 cycles: 50496000 heartbeat IPC: 2.533 cumulative IPC: 2.553 (Simulation time: 05 hr 23 min 37 sec)
*** Reached end of trace: (4, "traces/canneal_big4.champsimtrace")
*** Reached end of trace: (14, "traces/canneal_big4.champsimtrace")
*** Reached end of trace: (9, "traces/canneal_big4.champsimtrace")
*** Reached end of trace: (3, "traces/canneal_big3.champsimtrace")
*** Reached end of trace: (8, "traces/canneal_big3.champsimtrace")
*** Reached end of trace: (13, "traces/canneal_big3.champsimtrace")
*** Reached end of trace: (7, "traces/canneal_big2.champsimtrace")
*** Reached end of trace: (2, "traces/canneal_big2.champsimtrace")
*** Reached end of trace: (12, "traces/canneal_big2.champsimtrace")
*** Reached end of trace: (10, "traces/canneal_big0.champsimtrace")
*** Reached end of trace: (0, "traces/canneal_big0.champsimtrace")
*** Reached end of trace: (15, "traces/canneal_big0.champsimtrace")
*** Reached end of trace: (5, "traces/canneal_big0.champsimtrace")
*** Reached end of trace: (4, "traces/canneal_big4.champsimtrace")
*** Reached end of trace: (14, "traces/canneal_big4.champsimtrace")
Heartbeat CPU 14 instructions: 210000001 cycles: 52503232 heartbeat IPC: 4 cumulative IPC: 4 (Simulation time: 05 hr 35 min 53 sec)
Heartbeat CPU 4 instructions: 210000001 cycles: 52503232 heartbeat IPC: 4 cumulative IPC: 4 (Simulation time: 05 hr 35 min 53 sec)
*** Reached end of trace: (9, "traces/canneal_big4.champsimtrace")
*** Reached end of trace: (3, "traces/canneal_big3.champsimtrace")
*** Reached end of trace: (8, "traces/canneal_big3.champsimtrace")
*** Reached end of trace: (13, "traces/canneal_big3.champsimtrace")
Heartbeat CPU 9 instructions: 210000001 cycles: 52503428 heartbeat IPC: 4 cumulative IPC: 4 (Simulation time: 05 hr 35 min 53 sec)
Heartbeat CPU 3 instructions: 210000001 cycles: 52503453 heartbeat IPC: 4 cumulative IPC: 4 (Simulation time: 05 hr 35 min 53 sec)
Heartbeat CPU 8 instructions: 210000001 cycles: 52503456 heartbeat IPC: 4 cumulative IPC: 4 (Simulation time: 05 hr 35 min 53 sec)
Heartbeat CPU 13 instructions: 210000001 cycles: 52503460 heartbeat IPC: 4 cumulative IPC: 4 (Simulation time: 05 hr 35 min 53 sec)
*** Reached end of trace: (7, "traces/canneal_big2.champsimtrace")
*** Reached end of trace: (2, "traces/canneal_big2.champsimtrace")
*** Reached end of trace: (12, "traces/canneal_big2.champsimtrace")
Heartbeat CPU 7 instructions: 210000001 cycles: 52503600 heartbeat IPC: 4 cumulative IPC: 4 (Simulation time: 05 hr 35 min 53 sec)
Heartbeat CPU 2 instructions: 210000001 cycles: 52503607 heartbeat IPC: 4 cumulative IPC: 4 (Simulation time: 05 hr 35 min 53 sec)
Heartbeat CPU 12 instructions: 210000001 cycles: 52503614 heartbeat IPC: 4 cumulative IPC: 4 (Simulation time: 05 hr 35 min 53 sec)
*** Reached end of trace: (10, "traces/canneal_big0.champsimtrace")
*** Reached end of trace: (0, "traces/canneal_big0.champsimtrace")
*** Reached end of trace: (15, "traces/canneal_big0.champsimtrace")
Heartbeat CPU 0 instructions: 140000042 cycles: 53456813 heartbeat IPC: 2.647 cumulative IPC: 2.647 (Simulation time: 05 hr 43 min 36 sec)
Heartbeat CPU 10 instructions: 140000042 cycles: 53456813 heartbeat IPC: 2.647 cumulative IPC: 2.647 (Simulation time: 05 hr 43 min 36 sec)
Heartbeat CPU 15 instructions: 140000042 cycles: 53456814 heartbeat IPC: 2.647 cumulative IPC: 2.647 (Simulation time: 05 hr 43 min 36 sec)
*** Reached end of trace: (4, "traces/canneal_big4.champsimtrace")
*** Reached end of trace: (14, "traces/canneal_big4.champsimtrace")
*** Reached end of trace: (9, "traces/canneal_big4.champsimtrace")
*** Reached end of trace: (3, "traces/canneal_big3.champsimtrace")
*** Reached end of trace: (8, "traces/canneal_big3.champsimtrace")
*** Reached end of trace: (13, "traces/canneal_big3.champsimtrace")
*** Reached end of trace: (7, "traces/canneal_big2.champsimtrace")
*** Reached end of trace: (2, "traces/canneal_big2.champsimtrace")
*** Reached end of trace: (12, "traces/canneal_big2.champsimtrace")
*** Reached end of trace: (5, "traces/canneal_big0.champsimtrace")
Heartbeat CPU 5 instructions: 140000042 cycles: 54444646 heartbeat IPC: 2.533 cumulative IPC: 2.55 (Simulation time: 05 hr 51 min 25 sec)
Simulation finished CPU 9 instructions: 100000000 cycles: 25000000 cumulative IPC: 4 (Simulation time: 05 hr 55 min 32 sec)
Simulation finished CPU 8 instructions: 100000000 cycles: 25000000 cumulative IPC: 4 (Simulation time: 05 hr 55 min 32 sec)
Simulation finished CPU 7 instructions: 100000000 cycles: 25000000 cumulative IPC: 4 (Simulation time: 05 hr 55 min 32 sec)
Simulation finished CPU 4 instructions: 100000000 cycles: 25000000 cumulative IPC: 4 (Simulation time: 05 hr 55 min 32 sec)
Simulation finished CPU 3 instructions: 100000000 cycles: 25000000 cumulative IPC: 4 (Simulation time: 05 hr 55 min 32 sec)
Simulation finished CPU 2 instructions: 100000000 cycles: 25000000 cumulative IPC: 4 (Simulation time: 05 hr 55 min 32 sec)
Simulation finished CPU 14 instructions: 100000000 cycles: 25000000 cumulative IPC: 4 (Simulation time: 05 hr 55 min 32 sec)
Simulation finished CPU 13 instructions: 100000000 cycles: 25000000 cumulative IPC: 4 (Simulation time: 05 hr 55 min 32 sec)
Simulation finished CPU 12 instructions: 100000000 cycles: 25000000 cumulative IPC: 4 (Simulation time: 05 hr 55 min 32 sec)
*** Reached end of trace: (4, "traces/canneal_big4.champsimtrace")
*** Reached end of trace: (14, "traces/canneal_big4.champsimtrace")
Heartbeat CPU 14 instructions: 220000001 cycles: 55003232 heartbeat IPC: 4 cumulative IPC: 4 (Simulation time: 05 hr 55 min 35 sec)
Heartbeat CPU 4 instructions: 220000001 cycles: 55003232 heartbeat IPC: 4 cumulative IPC: 4 (Simulation time: 05 hr 55 min 35 sec)
*** Reached end of trace: (9, "traces/canneal_big4.champsimtrace")
*** Reached end of trace: (3, "traces/canneal_big3.champsimtrace")
*** Reached end of trace: (8, "traces/canneal_big3.champsimtrace")
*** Reached end of trace: (13, "traces/canneal_big3.champsimtrace")
Heartbeat CPU 9 instructions: 220000001 cycles: 55003428 heartbeat IPC: 4 cumulative IPC: 4 (Simulation time: 05 hr 55 min 35 sec)
Heartbeat CPU 3 instructions: 220000001 cycles: 55003453 heartbeat IPC: 4 cumulative IPC: 4 (Simulation time: 05 hr 55 min 35 sec)
Heartbeat CPU 8 instructions: 220000001 cycles: 55003456 heartbeat IPC: 4 cumulative IPC: 4 (Simulation time: 05 hr 55 min 35 sec)
Heartbeat CPU 13 instructions: 220000001 cycles: 55003460 heartbeat IPC: 4 cumulative IPC: 4 (Simulation time: 05 hr 55 min 35 sec)
*** Reached end of trace: (7, "traces/canneal_big2.champsimtrace")
*** Reached end of trace: (2, "traces/canneal_big2.champsimtrace")
*** Reached end of trace: (12, "traces/canneal_big2.champsimtrace")
Heartbeat CPU 7 instructions: 220000001 cycles: 55003600 heartbeat IPC: 4 cumulative IPC: 4 (Simulation time: 05 hr 55 min 35 sec)
Heartbeat CPU 2 instructions: 220000001 cycles: 55003607 heartbeat IPC: 4 cumulative IPC: 4 (Simulation time: 05 hr 55 min 35 sec)
Heartbeat CPU 12 instructions: 220000001 cycles: 55003614 heartbeat IPC: 4 cumulative IPC: 4 (Simulation time: 05 hr 55 min 35 sec)
*** Reached end of trace: (10, "traces/canneal_big0.champsimtrace")
*** Reached end of trace: (0, "traces/canneal_big0.champsimtrace")
*** Reached end of trace: (15, "traces/canneal_big0.champsimtrace")
*** Reached end of trace: (4, "traces/canneal_big4.champsimtrace")
*** Reached end of trace: (14, "traces/canneal_big4.champsimtrace")
*** Reached end of trace: (9, "traces/canneal_big4.champsimtrace")
*** Reached end of trace: (3, "traces/canneal_big3.champsimtrace")
*** Reached end of trace: (8, "traces/canneal_big3.champsimtrace")
*** Reached end of trace: (13, "traces/canneal_big3.champsimtrace")
*** Reached end of trace: (7, "traces/canneal_big2.champsimtrace")
*** Reached end of trace: (2, "traces/canneal_big2.champsimtrace")
*** Reached end of trace: (12, "traces/canneal_big2.champsimtrace")
*** Reached end of trace: (5, "traces/canneal_big0.champsimtrace")
*** Reached end of trace: (10, "traces/canneal_big0.champsimtrace")
*** Reached end of trace: (0, "traces/canneal_big0.champsimtrace")
*** Reached end of trace: (15, "traces/canneal_big0.champsimtrace")
Heartbeat CPU 0 instructions: 150000045 cycles: 57231657 heartbeat IPC: 2.649 cumulative IPC: 2.648 (Simulation time: 06 hr 09 min 07 sec)
Heartbeat CPU 10 instructions: 150000045 cycles: 57231657 heartbeat IPC: 2.649 cumulative IPC: 2.648 (Simulation time: 06 hr 09 min 07 sec)
Heartbeat CPU 15 instructions: 150000045 cycles: 57231658 heartbeat IPC: 2.649 cumulative IPC: 2.648 (Simulation time: 06 hr 09 min 07 sec)
*** Reached end of trace: (4, "traces/canneal_big4.champsimtrace")
*** Reached end of trace: (14, "traces/canneal_big4.champsimtrace")
Heartbeat CPU 14 instructions: 230000001 cycles: 57503232 heartbeat IPC: 4 cumulative IPC: 4 (Simulation time: 06 hr 10 min 51 sec)
Heartbeat CPU 4 instructions: 230000001 cycles: 57503232 heartbeat IPC: 4 cumulative IPC: 4 (Simulation time: 06 hr 10 min 51 sec)
*** Reached end of trace: (9, "traces/canneal_big4.champsimtrace")
*** Reached end of trace: (3, "traces/canneal_big3.champsimtrace")
[...]
cpu11->cpu11_L2C TRANSLATION  ACCESS:     403355 HIT:       1059 MISS:     402296 MSHR_MERGE:          0
cpu11->cpu11_L2C PREFETCH REQUESTED:          0 ISSUED:          0 USEFUL:          0 USELESS:          0
cpu11->cpu11_L2C AVERAGE MISS LATENCY: 225 cycles
cpu11_L2C COHERENCE INVALIDATIONS:          0
cpu11_L2C COHERENCE WRITE-HIT OTHER-SHARER EVENTS:          0
cpu11->cpu11_L1I TOTAL        ACCESS:   34913900 HIT:   32691690 MISS:    2222210 MSHR_MERGE:     185232
cpu11->cpu11_L1I LOAD         ACCESS:   34913900 HIT:   32691690 MISS:    2222210 MSHR_MERGE:     185232
cpu11->cpu11_L1I RFO          ACCESS:          0 HIT:          0 MISS:          0 MSHR_MERGE:          0
cpu11->cpu11_L1I PREFETCH     ACCESS:          0 HIT:          0 MISS:          0 MSHR_MERGE:          0
cpu11->cpu11_L1I WRITE        ACCESS:          0 HIT:          0 MISS:          0 MSHR_MERGE:          0
cpu11->cpu11_L1I TRANSLATION  ACCESS:          0 HIT:          0 MISS:          0 MSHR_MERGE:          0
cpu11->cpu11_L1I PREFETCH REQUESTED:          0 ISSUED:          0 USEFUL:          0 USELESS:          0
cpu11->cpu11_L1I AVERAGE MISS LATENCY: 178 cycles
cpu11_L1I COHERENCE INVALIDATIONS:          0
cpu11_L1I COHERENCE WRITE-HIT OTHER-SHARER EVENTS:          0
cpu11->cpu11_L1D TOTAL        ACCESS:     407240 HIT:       3885 MISS:     403355 MSHR_MERGE:          0
cpu11->cpu11_L1D LOAD         ACCESS:          0 HIT:          0 MISS:          0 MSHR_MERGE:          0
cpu11->cpu11_L1D RFO          ACCESS:          0 HIT:          0 MISS:          0 MSHR_MERGE:          0
cpu11->cpu11_L1D PREFETCH     ACCESS:          0 HIT:          0 MISS:          0 MSHR_MERGE:          0
cpu11->cpu11_L1D WRITE        ACCESS:          0 HIT:          0 MISS:          0 MSHR_MERGE:          0
cpu11->cpu11_L1D TRANSLATION  ACCESS:     407240 HIT:       3885 MISS:     403355 MSHR_MERGE:          0
cpu11->cpu11_L1D PREFETCH REQUESTED:          0 ISSUED:          0 USEFUL:          0 USELESS:          0
cpu11->cpu11_L1D AVERAGE MISS LATENCY: 272.7 cycles
cpu11_L1D COHERENCE INVALIDATIONS:          0
cpu11_L1D COHERENCE WRITE-HIT OTHER-SHARER EVENTS:          0
cpu11->cpu11_ITLB TOTAL        ACCESS:   34357421 HIT:   32001358 MISS:    2356063 MSHR_MERGE:      52615
cpu11->cpu11_ITLB LOAD         ACCESS:   34357421 HIT:   32001358 MISS:    2356063 MSHR_MERGE:      52615
cpu11->cpu11_ITLB RFO          ACCESS:          0 HIT:          0 MISS:          0 MSHR_MERGE:          0
cpu11->cpu11_ITLB PREFETCH     ACCESS:          0 HIT:          0 MISS:          0 MSHR_MERGE:          0
cpu11->cpu11_ITLB WRITE        ACCESS:          0 HIT:          0 MISS:          0 MSHR_MERGE:          0
cpu11->cpu11_ITLB TRANSLATION  ACCESS:          0 HIT:          0 MISS:          0 MSHR_MERGE:          0
cpu11->cpu11_ITLB PREFETCH REQUESTED:          0 ISSUED:          0 USEFUL:          0 USELESS:          0
cpu11->cpu11_ITLB AVERAGE MISS LATENCY: 52.9 cycles
cpu11_ITLB COHERENCE INVALIDATIONS:          0
cpu11_ITLB COHERENCE WRITE-HIT OTHER-SHARER EVENTS:          0
cpu11_DTLB COHERENCE INVALIDATIONS:          0
cpu11_DTLB COHERENCE WRITE-HIT OTHER-SHARER EVENTS:          0
cpu10->cpu10_STLB TOTAL        ACCESS:     347924 HIT:     347924 MISS:          0 MSHR_MERGE:          0
cpu10->cpu10_STLB LOAD         ACCESS:     347924 HIT:     347924 MISS:          0 MSHR_MERGE:          0
cpu10->cpu10_STLB RFO          ACCESS:          0 HIT:          0 MISS:          0 MSHR_MERGE:          0
cpu10->cpu10_STLB PREFETCH     ACCESS:          0 HIT:          0 MISS:          0 MSHR_MERGE:          0
cpu10->cpu10_STLB WRITE        ACCESS:          0 HIT:          0 MISS:          0 MSHR_MERGE:          0
cpu10->cpu10_STLB TRANSLATION  ACCESS:          0 HIT:          0 MISS:          0 MSHR_MERGE:          0
cpu10->cpu10_STLB PREFETCH REQUESTED:          0 ISSUED:          0 USEFUL:          0 USELESS:          0
cpu10->cpu10_STLB AVERAGE MISS LATENCY: - cycles
cpu10_STLB COHERENCE INVALIDATIONS:          0
cpu10_STLB COHERENCE WRITE-HIT OTHER-SHARER EVENTS:          0
cpu10->cpu10_L2C TOTAL        ACCESS:   11157776 HIT:    5411510 MISS:    5746266 MSHR_MERGE:          0
cpu10->cpu10_L2C LOAD         ACCESS:    1759155 HIT:     593373 MISS:    1165782 MSHR_MERGE:          0
cpu10->cpu10_L2C RFO          ACCESS:    4663055 HIT:      82571 MISS:    4580484 MSHR_MERGE:          0
cpu10->cpu10_L2C PREFETCH     ACCESS:          0 HIT:          0 MISS:          0 MSHR_MERGE:          0
cpu10->cpu10_L2C WRITE        ACCESS:    4735566 HIT:    4735566 MISS:          0 MSHR_MERGE:          0
cpu10->cpu10_L2C TRANSLATION  ACCESS:          0 HIT:          0 MISS:          0 MSHR_MERGE:          0
cpu10->cpu10_L2C PREFETCH REQUESTED:          0 ISSUED:          0 USEFUL:          0 USELESS:          0
cpu10->cpu10_L2C AVERAGE MISS LATENCY: 58.53 cycles
cpu10_L2C COHERENCE INVALIDATIONS:          0
cpu10_L2C COHERENCE WRITE-HIT OTHER-SHARER EVENTS:          0
cpu10->cpu10_L1I TOTAL        ACCESS:  156430886 HIT:  156087602 MISS:     343284 MSHR_MERGE:      90882
cpu10->cpu10_L1I LOAD         ACCESS:  156430886 HIT:  156087602 MISS:     343284 MSHR_MERGE:      90882
cpu10->cpu10_L1I RFO          ACCESS:          0 HIT:          0 MISS:          0 MSHR_MERGE:          0
cpu10->cpu10_L1I PREFETCH     ACCESS:          0 HIT:          0 MISS:          0 MSHR_MERGE:          0
cpu10->cpu10_L1I WRITE        ACCESS:          0 HIT:          0 MISS:          0 MSHR_MERGE:          0
cpu10->cpu10_L1I TRANSLATION  ACCESS:          0 HIT:          0 MISS:          0 MSHR_MERGE:          0
cpu10->cpu10_L1I PREFETCH REQUESTED:          0 ISSUED:          0 USEFUL:          0 USELESS:          0
cpu10->cpu10_L1I AVERAGE MISS LATENCY: 191.1 cycles
cpu10_L1I COHERENCE INVALIDATIONS:          0
cpu10_L1I COHERENCE WRITE-HIT OTHER-SHARER EVENTS:          0
cpu10->cpu10_L1D TOTAL        ACCESS:  186575929 HIT:  166938180 MISS:   19637749 MSHR_MERGE:   13461235
cpu10->cpu10_L1D LOAD         ACCESS:   17615095 HIT:   15447707 MISS:    2167388 MSHR_MERGE:     660635
cpu10->cpu10_L1D RFO          ACCESS:          0 HIT:          0 MISS:          0 MSHR_MERGE:          0
cpu10->cpu10_L1D PREFETCH     ACCESS:          0 HIT:          0 MISS:          0 MSHR_MERGE:          0
cpu10->cpu10_L1D WRITE        ACCESS:  168960834 HIT:  151490473 MISS:   17470361 MSHR_MERGE:   12800600
cpu10->cpu10_L1D TRANSLATION  ACCESS:          0 HIT:          0 MISS:          0 MSHR_MERGE:          0
cpu10->cpu10_L1D PREFETCH REQUESTED:          0 ISSUED:          0 USEFUL:          0 USELESS:          0
cpu10->cpu10_L1D AVERAGE MISS LATENCY: 54.86 cycles
cpu10_L1D COHERENCE INVALIDATIONS:          0
cpu10_L1D COHERENCE WRITE-HIT OTHER-SHARER EVENTS:          0
cpu10->cpu10_ITLB TOTAL        ACCESS:  130248581 HIT:  130196249 MISS:      52332 MSHR_MERGE:      20526
cpu10->cpu10_ITLB LOAD         ACCESS:  130248581 HIT:  130196249 MISS:      52332 MSHR_MERGE:      20526
cpu10->cpu10_ITLB RFO          ACCESS:          0 HIT:          0 MISS:          0 MSHR_MERGE:          0
cpu10->cpu10_ITLB PREFETCH     ACCESS:          0 HIT:          0 MISS:          0 MSHR_MERGE:          0
cpu10->cpu10_ITLB WRITE        ACCESS:          0 HIT:          0 MISS:          0 MSHR_MERGE:          0
cpu10->cpu10_ITLB TRANSLATION  ACCESS:          0 HIT:          0 MISS:          0 MSHR_MERGE:          0
cpu10->cpu10_ITLB PREFETCH REQUESTED:          0 ISSUED:          0 USEFUL:          0 USELESS:          0
cpu10->cpu10_ITLB AVERAGE MISS LATENCY: 4.002 cycles
cpu10_ITLB COHERENCE INVALIDATIONS:          0
cpu10_ITLB COHERENCE WRITE-HIT OTHER-SHARER EVENTS:          0
cpu10->cpu10_DTLB TOTAL        ACCESS:  155222036 HIT:  154817472 MISS:     404564 MSHR_MERGE:      88446
cpu10->cpu10_DTLB LOAD         ACCESS:  155222036 HIT:  154817472 MISS:     404564 MSHR_MERGE:      88446
cpu10->cpu10_DTLB RFO          ACCESS:          0 HIT:          0 MISS:          0 MSHR_MERGE:          0
cpu10->cpu10_DTLB PREFETCH     ACCESS:          0 HIT:          0 MISS:          0 MSHR_MERGE:          0
cpu10->cpu10_DTLB WRITE        ACCESS:          0 HIT:          0 MISS:          0 MSHR_MERGE:          0
cpu10->cpu10_DTLB TRANSLATION  ACCESS:          0 HIT:          0 MISS:          0 MSHR_MERGE:          0
cpu10->cpu10_DTLB PREFETCH REQUESTED:          0 ISSUED:          0 USEFUL:          0 USELESS:          0
cpu10->cpu10_DTLB AVERAGE MISS LATENCY: 4 cycles
cpu10_DTLB COHERENCE INVALIDATIONS:          0
cpu10_DTLB COHERENCE WRITE-HIT OTHER-SHARER EVENTS:          0
cpu0->cpu0_STLB TOTAL        ACCESS:     347924 HIT:     347924 MISS:          0 MSHR_MERGE:          0
cpu0->cpu0_STLB LOAD         ACCESS:     347924 HIT:     347924 MISS:          0 MSHR_MERGE:          0
cpu0->cpu0_STLB RFO          ACCESS:          0 HIT:          0 MISS:          0 MSHR_MERGE:          0
cpu0->cpu0_STLB PREFETCH     ACCESS:          0 HIT:          0 MISS:          0 MSHR_MERGE:          0
cpu0->cpu0_STLB WRITE        ACCESS:          0 HIT:          0 MISS:          0 MSHR_MERGE:          0
cpu0->cpu0_STLB TRANSLATION  ACCESS:          0 HIT:          0 MISS:          0 MSHR_MERGE:          0
cpu0->cpu0_STLB PREFETCH REQUESTED:          0 ISSUED:          0 USEFUL:          0 USELESS:          0
cpu0->cpu0_STLB AVERAGE MISS LATENCY: - cycles
cpu0_STLB COHERENCE INVALIDATIONS:          0
cpu0_STLB COHERENCE WRITE-HIT OTHER-SHARER EVENTS:          0
cpu0->cpu0_L2C TOTAL        ACCESS:   11157789 HIT:    5411517 MISS:    5746272 MSHR_MERGE:          0
cpu0->cpu0_L2C LOAD         ACCESS:    1759155 HIT:     593373 MISS:    1165782 MSHR_MERGE:          0
cpu0->cpu0_L2C RFO          ACCESS:    4663062 HIT:      82572 MISS:    4580490 MSHR_MERGE:          0
cpu0->cpu0_L2C PREFETCH     ACCESS:          0 HIT:          0 MISS:          0 MSHR_MERGE:          0
cpu0->cpu0_L2C WRITE        ACCESS:    4735572 HIT:    4735572 MISS:          0 MSHR_MERGE:          0
cpu0->cpu0_L2C TRANSLATION  ACCESS:          0 HIT:          0 MISS:          0 MSHR_MERGE:          0
cpu0->cpu0_L2C PREFETCH REQUESTED:          0 ISSUED:          0 USEFUL:          0 USELESS:          0
cpu0->cpu0_L2C AVERAGE MISS LATENCY: 58.51 cycles
cpu0_L2C COHERENCE INVALIDATIONS:          0
cpu0_L2C COHERENCE WRITE-HIT OTHER-SHARER EVENTS:          0
cpu0->cpu0_L1I TOTAL        ACCESS:  156431318 HIT:  156088032 MISS:     343286 MSHR_MERGE:      90884
cpu0->cpu0_L1I LOAD         ACCESS:  156431318 HIT:  156088032 MISS:     343286 MSHR_MERGE:      90884
cpu0->cpu0_L1I RFO          ACCESS:          0 HIT:          0 MISS:          0 MSHR_MERGE:          0
cpu0->cpu0_L1I PREFETCH     ACCESS:          0 HIT:          0 MISS:          0 MSHR_MERGE:          0
cpu0->cpu0_L1I WRITE        ACCESS:          0 HIT:          0 MISS:          0 MSHR_MERGE:          0
cpu0->cpu0_L1I TRANSLATION  ACCESS:          0 HIT:          0 MISS:          0 MSHR_MERGE:          0
cpu0->cpu0_L1I PREFETCH REQUESTED:          0 ISSUED:          0 USEFUL:          0 USELESS:          0
cpu0->cpu0_L1I AVERAGE MISS LATENCY: 191.1 cycles
cpu0_L1I COHERENCE INVALIDATIONS:          0
cpu0_L1I COHERENCE WRITE-HIT OTHER-SHARER EVENTS:          0
cpu0->cpu0_L1D TOTAL        ACCESS:  186576710 HIT:  166941250 MISS:   19635460 MSHR_MERGE:   13458940
cpu0->cpu0_L1D LOAD         ACCESS:   17615317 HIT:   15448118 MISS:    2167199 MSHR_MERGE:     660446
cpu0->cpu0_L1D RFO          ACCESS:          0 HIT:          0 MISS:          0 MSHR_MERGE:          0
cpu0->cpu0_L1D PREFETCH     ACCESS:          0 HIT:          0 MISS:          0 MSHR_MERGE:          0
cpu0->cpu0_L1D WRITE        ACCESS:  168961393 HIT:  151493132 MISS:   17468261 MSHR_MERGE:   12798494
cpu0->cpu0_L1D TRANSLATION  ACCESS:          0 HIT:          0 MISS:          0 MSHR_MERGE:          0
cpu0->cpu0_L1D PREFETCH REQUESTED:          0 ISSUED:          0 USEFUL:          0 USELESS:          0
cpu0->cpu0_L1D AVERAGE MISS LATENCY: 54.83 cycles
cpu0_L1D COHERENCE INVALIDATIONS:          0
cpu0_L1D COHERENCE WRITE-HIT OTHER-SHARER EVENTS:          0
cpu0->cpu0_ITLB TOTAL        ACCESS:  130249096 HIT:  130196764 MISS:      52332 MSHR_MERGE:      20526
cpu0->cpu0_ITLB LOAD         ACCESS:  130249096 HIT:  130196764 MISS:      52332 MSHR_MERGE:      20526
cpu0->cpu0_ITLB RFO          ACCESS:          0 HIT:          0 MISS:          0 MSHR_MERGE:          0
cpu0->cpu0_ITLB PREFETCH     ACCESS:          0 HIT:          0 MISS:          0 MSHR_MERGE:          0
cpu0->cpu0_ITLB WRITE        ACCESS:          0 HIT:          0 MISS:          0 MSHR_MERGE:          0
cpu0->cpu0_ITLB TRANSLATION  ACCESS:          0 HIT:          0 MISS:          0 MSHR_MERGE:          0
cpu0->cpu0_ITLB PREFETCH REQUESTED:          0 ISSUED:          0 USEFUL:          0 USELESS:          0
cpu0->cpu0_ITLB AVERAGE MISS LATENCY: 4.002 cycles
cpu0_ITLB COHERENCE INVALIDATIONS:          0
cpu0_ITLB COHERENCE WRITE-HIT OTHER-SHARER EVENTS:          0
cpu0->cpu0_DTLB TOTAL        ACCESS:  155222891 HIT:  154818317 MISS:     404574 MSHR_MERGE:      88456
cpu0->cpu0_DTLB LOAD         ACCESS:  155222891 HIT:  154818317 MISS:     404574 MSHR_MERGE:      88456
cpu0->cpu0_DTLB RFO          ACCESS:          0 HIT:          0 MISS:          0 MSHR_MERGE:          0
cpu0->cpu0_DTLB PREFETCH     ACCESS:          0 HIT:          0 MISS:          0 MSHR_MERGE:          0
cpu0->cpu0_DTLB WRITE        ACCESS:          0 HIT:          0 MISS:          0 MSHR_MERGE:          0
cpu0->cpu0_DTLB TRANSLATION  ACCESS:          0 HIT:          0 MISS:          0 MSHR_MERGE:          0
cpu0->cpu0_DTLB PREFETCH REQUESTED:          0 ISSUED:          0 USEFUL:          0 USELESS:          0
cpu0->cpu0_DTLB AVERAGE MISS LATENCY: 4 cycles
cpu0_DTLB COHERENCE INVALIDATIONS:          0
cpu0_DTLB COHERENCE WRITE-HIT OTHER-SHARER EVENTS:          0
cpu0->LLC TOTAL        ACCESS:   10375262 HIT:    8757245 MISS:    1618017 MSHR_MERGE:     361583
cpu0->LLC LOAD         ACCESS:    1165782 HIT:     910796 MISS:     254986 MSHR_MERGE:      97268
cpu0->LLC RFO          ACCESS:    4580489 HIT:    3877493 MISS:     702996 MSHR_MERGE:     264315
cpu0->LLC PREFETCH     ACCESS:          0 HIT:          0 MISS:          0 MSHR_MERGE:          0
cpu0->LLC WRITE        ACCESS:    4628991 HIT:    3968956 MISS:     660035 MSHR_MERGE:          0
cpu0->LLC TRANSLATION  ACCESS:          0 HIT:          0 MISS:          0 MSHR_MERGE:          0
cpu0->LLC PREFETCH REQUESTED:          0 ISSUED:          0 USEFUL:          0 USELESS:          0
cpu0->LLC AVERAGE MISS LATENCY: 2037 cycles
cpu1->LLC TOTAL        ACCESS:    2015062 HIT:     291646 MISS:    1723416 MSHR_MERGE:     792966
cpu1->LLC LOAD         ACCESS:    1612808 HIT:     291564 MISS:    1321244 MSHR_MERGE:     792966
cpu1->LLC RFO          ACCESS:          0 HIT:          0 MISS:          0 MSHR_MERGE:          0
cpu1->LLC PREFETCH     ACCESS:          0 HIT:          0 MISS:          0 MSHR_MERGE:          0
cpu1->LLC WRITE        ACCESS:          0 HIT:          0 MISS:          0 MSHR_MERGE:          0
cpu1->LLC TRANSLATION  ACCESS:     402254 HIT:         82 MISS:     402172 MSHR_MERGE:          0
cpu1->LLC PREFETCH REQUESTED:          0 ISSUED:          0 USEFUL:          0 USELESS:          0
cpu1->LLC AVERAGE MISS LATENCY: 1182 cycles
cpu5->LLC TOTAL        ACCESS:    9957380 HIT:    8467743 MISS:    1489637 MSHR_MERGE:       3461
cpu5->LLC LOAD         ACCESS:    1118855 HIT:     879513 MISS:     239342 MSHR_MERGE:       3069
cpu5->LLC RFO          ACCESS:    4394592 HIT:    3752383 MISS:     642209 MSHR_MERGE:        392
cpu5->LLC PREFETCH     ACCESS:          0 HIT:          0 MISS:          0 MSHR_MERGE:          0
cpu5->LLC WRITE        ACCESS:    4443933 HIT:    3835847 MISS:     608086 MSHR_MERGE:          0
cpu5->LLC TRANSLATION  ACCESS:          0 HIT:          0 MISS:          0 MSHR_MERGE:          0
cpu5->LLC PREFETCH REQUESTED:          0 ISSUED:          0 USEFUL:          0 USELESS:          0
cpu5->LLC AVERAGE MISS LATENCY: 989.8 cycles
cpu6->LLC TOTAL        ACCESS:    1942499 HIT:     251035 MISS:    1691464 MSHR_MERGE:         25
cpu6->LLC LOAD         ACCESS:    1554775 HIT:     250951 MISS:    1303824 MSHR_MERGE:         25
cpu6->LLC RFO          ACCESS:          0 HIT:          0 MISS:          0 MSHR_MERGE:          0
cpu6->LLC PREFETCH     ACCESS:          0 HIT:          0 MISS:          0 MSHR_MERGE:          0
cpu6->LLC WRITE        ACCESS:          0 HIT:          0 MISS:          0 MSHR_MERGE:          0
cpu6->LLC TRANSLATION  ACCESS:     387724 HIT:         84 MISS:     387640 MSHR_MERGE:          0
cpu6->LLC PREFETCH REQUESTED:          0 ISSUED:          0 USEFUL:          0 USELESS:          0
cpu6->LLC AVERAGE MISS LATENCY: 871.1 cycles
cpu10->LLC TOTAL        ACCESS:   10375250 HIT:    8756426 MISS:    1618824 MSHR_MERGE:     894862
cpu10->LLC LOAD         ACCESS:    1165782 HIT:     910796 MISS:     254986 MSHR_MERGE:     238555
cpu10->LLC RFO          ACCESS:    4580483 HIT:    3876973 MISS:     703510 MSHR_MERGE:     656307
cpu10->LLC PREFETCH     ACCESS:          0 HIT:          0 MISS:          0 MSHR_MERGE:          0
cpu10->LLC WRITE        ACCESS:    4628985 HIT:    3968657 MISS:     660328 MSHR_MERGE:          0
cpu10->LLC TRANSLATION  ACCESS:          0 HIT:          0 MISS:          0 MSHR_MERGE:          0
cpu10->LLC PREFETCH REQUESTED:          0 ISSUED:          0 USEFUL:          0 USELESS:          0
cpu10->LLC AVERAGE MISS LATENCY: 1538 cycles
cpu11->LLC TOTAL        ACCESS:    2015184 HIT:     293405 MISS:    1721779 MSHR_MERGE:     477046
cpu11->LLC LOAD         ACCESS:    1612888 HIT:     293404 MISS:    1319484 MSHR_MERGE:     477046
cpu11->LLC RFO          ACCESS:          0 HIT:          0 MISS:          0 MSHR_MERGE:          0
cpu11->LLC PREFETCH     ACCESS:          0 HIT:          0 MISS:          0 MSHR_MERGE:          0
cpu11->LLC WRITE        ACCESS:          0 HIT:          0 MISS:          0 MSHR_MERGE:          0
cpu11->LLC TRANSLATION  ACCESS:     402296 HIT:          1 MISS:     402295 MSHR_MERGE:          0
cpu11->LLC PREFETCH REQUESTED:          0 ISSUED:          0 USEFUL:          0 USELESS:          0
cpu11->LLC AVERAGE MISS LATENCY: 1586 cycles
cpu15->LLC TOTAL        ACCESS:   10375266 HIT:    8757094 MISS:    1618172 MSHR_MERGE:     660288
cpu15->LLC LOAD         ACCESS:    1165782 HIT:     910796 MISS:     254986 MSHR_MERGE:     174896
cpu15->LLC RFO          ACCESS:    4580491 HIT:    3877574 MISS:     702917 MSHR_MERGE:     485392
cpu15->LLC PREFETCH     ACCESS:          0 HIT:          0 MISS:          0 MSHR_MERGE:          0
cpu15->LLC WRITE        ACCESS:    4628993 HIT:    3968724 MISS:     660269 MSHR_MERGE:          0
cpu15->LLC TRANSLATION  ACCESS:          0 HIT:          0 MISS:          0 MSHR_MERGE:          0
cpu15->LLC PREFETCH REQUESTED:          0 ISSUED:          0 USEFUL:          0 USELESS:          0
cpu15->LLC AVERAGE MISS LATENCY: 1175 cycles
LLC COHERENCE INVALIDATIONS:   23868033
LLC COHERENCE WRITE-HIT OTHER-SHARER EVENTS:   15739334
LLC SHARER HIST TOTAL:      132657264
LLC SHARER HIST[ 1]:       66171280  (49.881%)
LLC SHARER HIST[ 2]:       11604719  ( 8.748%)
LLC SHARER HIST[ 3]:       16224757  (12.231%)
LLC SHARER HIST[ 4]:       37960566  (28.616%)
LLC SHARER HIST[ 5]:         243605  ( 0.184%)
LLC SHARER HIST[ 6]:         246567  ( 0.186%)
LLC SHARER HIST[ 7]:          50583  ( 0.038%)
LLC SHARER HIST[11]:          16245  ( 0.012%)
LLC SHARER HIST[12]:          94427  ( 0.071%)
LLC SHARER HIST[15]:          20482  ( 0.015%)
LLC SHARER HIST[16]:          24033  ( 0.018%)

DRAM Statistics

Channel 0 RQ ROW_BUFFER_HIT:      70421
  ROW_BUFFER_MISS:    5624658
  AVG DBUS CONGESTED CYCLE: 6.648
Channel 0 WQ ROW_BUFFER_HIT:     361831
  ROW_BUFFER_MISS:    1611593
  FULL:       8831
Channel 0 REFRESHES ISSUED:      29021

VMEM ALIASED FILLS (cross-CPU shared-page hits): 611583
