[VMEM] WARNING: physical memory size is smaller than virtual memory size.

*** ChampSim Multicore Out-of-Order Simulator ***
Warmup Instructions: 50000000
Simulation Instructions: 100000000
Number of CPUs: 16
Page size: 4096

Off-chip DRAM Size: 16 GiB Channels: 1 Width: 64-bit Data Rate: 3205 MT/s
*** Reached end of trace: (4, "traces/canneal_big4.champsimtrace")
*** Reached end of trace: (14, "traces/canneal_big4.champsimtrace")
*** Reached end of trace: (9, "traces/canneal_big4.champsimtrace")
*** Reached end of trace: (3, "traces/canneal_big3.champsimtrace")
*** Reached end of trace: (8, "traces/canneal_big3.champsimtrace")
*** Reached end of trace: (13, "traces/canneal_big3.champsimtrace")
*** Reached end of trace: (7, "traces/canneal_big2.champsimtrace")
*** Reached end of trace: (2, "traces/canneal_big2.champsimtrace")
*** Reached end of trace: (12, "traces/canneal_big2.champsimtrace")
*** Reached end of trace: (10, "traces/canneal_big0.champsimtrace")
*** Reached end of trace: (0, "traces/canneal_big0.champsimtrace")
*** Reached end of trace: (15, "traces/canneal_big0.champsimtrace")
*** Reached end of trace: (5, "traces/canneal_big0.champsimtrace")
*** Reached end of trace: (4, "traces/canneal_big4.champsimtrace")
*** Reached end of trace: (14, "traces/canneal_big4.champsimtrace")
Heartbeat CPU 14 instructions: 10000001 cycles: 2503232 heartbeat IPC: 3.995 cumulative IPC: 3.995 (Simulation time: 00 hr 13 min 40 sec)
Heartbeat CPU 4 instructions: 10000001 cycles: 2503232 heartbeat IPC: 3.995 cumulative IPC: 3.995 (Simulation time: 00 hr 13 min 40 sec)
*** Reached end of trace: (9, "traces/canneal_big4.champsimtrace")
*** Reached end of trace: (3, "traces/canneal_big3.champsimtrace")
*** Reached end of trace: (8, "traces/canneal_big3.champsimtrace")
*** Reached end of trace: (13, "traces/canneal_big3.champsimtrace")
Heartbeat CPU 9 instructions: 10000001 cycles: 2503428 heartbeat IPC: 3.995 cumulative IPC: 3.995 (Simulation time: 00 hr 13 min 40 sec)
Heartbeat CPU 3 instructions: 10000001 cycles: 2503453 heartbeat IPC: 3.994 cumulative IPC: 3.994 (Simulation time: 00 hr 13 min 40 sec)
Heartbeat CPU 8 instructions: 10000001 cycles: 2503456 heartbeat IPC: 3.994 cumulative IPC: 3.994 (Simulation time: 00 hr 13 min 40 sec)
Heartbeat CPU 13 instructions: 10000001 cycles: 2503460 heartbeat IPC: 3.994 cumulative IPC: 3.994 (Simulation time: 00 hr 13 min 40 sec)
*** Reached end of trace: (7, "traces/canneal_big2.champsimtrace")
*** Reached end of trace: (2, "traces/canneal_big2.champsimtrace")
*** Reached end of trace: (12, "traces/canneal_big2.champsimtrace")
Heartbeat CPU 7 instructions: 10000001 cycles: 2503600 heartbeat IPC: 3.994 cumulative IPC: 3.994 (Simulation time: 00 hr 13 min 40 sec)
Heartbeat CPU 2 instructions: 10000001 cycles: 2503607 heartbeat IPC: 3.994 cumulative IPC: 3.994 (Simulation time: 00 hr 13 min 40 sec)
Heartbeat CPU 12 instructions: 10000001 cycles: 2503614 heartbeat IPC: 3.994 cumulative IPC: 3.994 (Simulation time: 00 hr 13 min 40 sec)
*** Reached end of trace: (4, "traces/canneal_big4.champsimtrace")
*** Reached end of trace: (14, "traces/canneal_big4.champsimtrace")
*** Reached end of trace: (9, "traces/canneal_big4.champsimtrace")
*** Reached end of trace: (3, "traces/canneal_big3.champsimtrace")
*** Reached end of trace: (8, "traces/canneal_big3.champsimtrace")
*** Reached end of trace: (13, "traces/canneal_big3.champsimtrace")
*** Reached end of trace: (7, "traces/canneal_big2.champsimtrace")
*** Reached end of trace: (2, "traces/canneal_big2.champsimtrace")
*** Reached end of trace: (12, "traces/canneal_big2.champsimtrace")
*** Reached end of trace: (10, "traces/canneal_big0.champsimtrace")
*** Reached end of trace: (0, "traces/canneal_big0.champsimtrace")
Heartbeat CPU 0 instructions: 10000003 cycles: 3968958 heartbeat IPC: 2.52 cumulative IPC: 2.52 (Simulation time: 00 hr 21 min 44 sec)
Heartbeat CPU 10 instructions: 10000003 cycles: 3968958 heartbeat IPC: 2.52 cumulative IPC: 2.52 (Simulation time: 00 hr 21 min 44 sec)
*** Reached end of trace: (15, "traces/canneal_big0.champsimtrace")
Heartbeat CPU 15 instructions: 10000003 cycles: 3969117 heartbeat IPC: 2.519 cumulative IPC: 2.519 (Simulation time: 00 hr 21 min 45 sec)
*** Reached end of trace: (5, "traces/canneal_big0.champsimtrace")
Heartbeat CPU 5 instructions: 10000003 cycles: 3975533 heartbeat IPC: 2.515 cumulative IPC: 2.515 (Simulation time: 00 hr 21 min 47 sec)
*** Reached end of trace: (1, "traces/canneal_big1.champsimtrace")
*** Reached end of trace: (11, "traces/canneal_big1.champsimtrace")
*** Reached end of trace: (6, "traces/canneal_big1.champsimtrace")
*** Reached end of trace: (4, "traces/canneal_big4.champsimtrace")
*** Reached end of trace: (14, "traces/canneal_big4.champsimtrace")
Heartbeat CPU 14 instructions: 20000001 cycles: 5003232 heartbeat IPC: 4 cumulative IPC: 3.997 (Simulation time: 00 hr 27 min 40 sec)
Heartbeat CPU 4 instructions: 20000001 cycles: 5003232 heartbeat IPC: 4 cumulative IPC: 3.997 (Simulation time: 00 hr 27 min 40 sec)
*** Reached end of trace: (9, "traces/canneal_big4.champsimtrace")
*** Reached end of trace: (3, "traces/canneal_big3.champsimtrace")
*** Reached end of trace: (8, "traces/canneal_big3.champsimtrace")
*** Reached end of trace: (13, "traces/canneal_big3.champsimtrace")
Heartbeat CPU 9 instructions: 20000001 cycles: 5003428 heartbeat IPC: 4 cumulative IPC: 3.997 (Simulation time: 00 hr 27 min 40 sec)
Heartbeat CPU 3 instructions: 20000001 cycles: 5003453 heartbeat IPC: 4 cumulative IPC: 3.997 (Simulation time: 00 hr 27 min 40 sec)
Heartbeat CPU 8 instructions: 20000001 cycles: 5003456 heartbeat IPC: 4 cumulative IPC: 3.997 (Simulation time: 00 hr 27 min 40 sec)
Heartbeat CPU 13 instructions: 20000001 cycles: 5003460 heartbeat IPC: 4 cumulative IPC: 3.997 (Simulation time: 00 hr 27 min 40 sec)
*** Reached end of trace: (7, "traces/canneal_big2.champsimtrace")
*** Reached end of trace: (2, "traces/canneal_big2.champsimtrace")
*** Reached end of trace: (12, "traces/canneal_big2.champsimtrace")
Heartbeat CPU 7 instructions: 20000001 cycles: 5003600 heartbeat IPC: 4 cumulative IPC: 3.997 (Simulation time: 00 hr 27 min 40 sec)
Heartbeat CPU 2 instructions: 20000001 cycles: 5003607 heartbeat IPC: 4 cumulative IPC: 3.997 (Simulation time: 00 hr 27 min 40 sec)
Heartbeat CPU 12 instructions: 20000001 cycles: 5003614 heartbeat IPC: 4 cumulative IPC: 3.997 (Simulation time: 00 hr 27 min 40 sec)
*** Reached end of trace: (10, "traces/canneal_big0.champsimtrace")
*** Reached end of trace: (0, "traces/canneal_big0.champsimtrace")
*** Reached end of trace: (15, "traces/canneal_big0.champsimtrace")
*** Reached end of trace: (5, "traces/canneal_big0.champsimtrace")
*** Reached end of trace: (4, "traces/canneal_big4.champsimtrace")
*** Reached end of trace: (14, "traces/canneal_big4.champsimtrace")
*** Reached end of trace: (9, "traces/canneal_big4.champsimtrace")
*** Reached end of trace: (3, "traces/canneal_big3.champsimtrace")
*** Reached end of trace: (8, "traces/canneal_big3.champsimtrace")
*** Reached end of trace: (13, "traces/canneal_big3.champsimtrace")
*** Reached end of trace: (7, "traces/canneal_big2.champsimtrace")
*** Reached end of trace: (2, "traces/canneal_big2.champsimtrace")
*** Reached end of trace: (12, "traces/canneal_big2.champsimtrace")
*** Reached end of trace: (11, "traces/canneal_big1.champsimtrace")
*** Reached end of trace: (1, "traces/canneal_big1.champsimtrace")
Heartbeat CPU 1 instructions: 10000002 cycles: 7114221 heartbeat IPC: 1.406 cumulative IPC: 1.406 (Simulation time: 00 hr 39 min 50 sec)
Heartbeat CPU 11 instructions: 10000002 cycles: 7114226 heartbeat IPC: 1.406 cumulative IPC: 1.406 (Simulation time: 00 hr 39 min 50 sec)
*** Reached end of trace: (6, "traces/canneal_big1.champsimtrace")
Heartbeat CPU 6 instructions: 10000002 cycles: 7123001 heartbeat IPC: 1.404 cumulative IPC: 1.404 (Simulation time: 00 hr 39 min 54 sec)
*** Reached end of trace: (4, "traces/canneal_big4.champsimtrace")
*** Reached end of trace: (14, "traces/canneal_big4.champsimtrace")
Heartbeat CPU 14 instructions: 30000001 cycles: 7503232 heartbeat IPC: 4 cumulative IPC: 3.998 (Simulation time: 00 hr 42 min 05 sec)
Heartbeat CPU 4 instructions: 30000001 cycles: 7503232 heartbeat IPC: 4 cumulative IPC: 3.998 (Simulation time: 00 hr 42 min 05 sec)
*** Reached end of trace: (9, "traces/canneal_big4.champsimtrace")
*** Reached end of trace: (3, "traces/canneal_big3.champsimtrace")
*** Reached end of trace: (8, "traces/canneal_big3.champsimtrace")
*** Reached end of trace: (13, "traces/canneal_big3.champsimtrace")
Heartbeat CPU 9 instructions: 30000001 cycles: 7503428 heartbeat IPC: 4 cumulative IPC: 3.998 (Simulation time: 00 hr 42 min 05 sec)
Heartbeat CPU 3 instructions: 30000001 cycles: 7503453 heartbeat IPC: 4 cumulative IPC: 3.998 (Simulation time: 00 hr 42 min 05 sec)
Heartbeat CPU 8 instructions: 30000001 cycles: 7503456 heartbeat IPC: 4 cumulative IPC: 3.998 (Simulation time: 00 hr 42 min 05 sec)
Heartbeat CPU 13 instructions: 30000001 cycles: 7503460 heartbeat IPC: 4 cumulative IPC: 3.998 (Simulation time: 00 hr 42 min 05 sec)
*** Reached end of trace: (7, "traces/canneal_big2.champsimtrace")
*** Reached end of trace: (2, "traces/canneal_big2.champsimtrace")
*** Reached end of trace: (12, "traces/canneal_big2.champsimtrace")
Heartbeat CPU 7 instructions: 30000001 cycles: 7503600 heartbeat IPC: 4 cumulative IPC: 3.998 (Simulation time: 00 hr 42 min 05 sec)
Heartbeat CPU 2 instructions: 30000001 cycles: 7503607 heartbeat IPC: 4 cumulative IPC: 3.998 (Simulation time: 00 hr 42 min 05 sec)
Heartbeat CPU 12 instructions: 30000001 cycles: 7503614 heartbeat IPC: 4 cumulative IPC: 3.998 (Simulation time: 00 hr 42 min 05 sec)
*** Reached end of trace: (10, "traces/canneal_big0.champsimtrace")
*** Reached end of trace: (0, "traces/canneal_big0.champsimtrace")
Heartbeat CPU 10 instructions: 20000006 cycles: 7811883 heartbeat IPC: 2.602 cumulative IPC: 2.56 (Simulation time: 00 hr 43 min 49 sec)
*** Reached end of trace: (15, "traces/canneal_big0.champsimtrace")
Heartbeat CPU 0 instructions: 20000006 cycles: 7811980 heartbeat IPC: 2.602 cumulative IPC: 2.56 (Simulation time: 00 hr 43 min 49 sec)
Heartbeat CPU 15 instructions: 20000006 cycles: 7812106 heartbeat IPC: 2.602 cumulative IPC: 2.56 (Simulation time: 00 hr 43 min 49 sec)
*** Reached end of trace: (5, "traces/canneal_big0.champsimtrace")
Heartbeat CPU 5 instructions: 20000006 cycles: 7831290 heartbeat IPC: 2.594 cumulative IPC: 2.554 (Simulation time: 00 hr 43 min 57 sec)
*** Reached end of trace: (4, "traces/canneal_big4.champsimtrace")
*** Reached end of trace: (14, "traces/canneal_big4.champsimtrace")
*** Reached end of trace: (9, "traces/canneal_big4.champsimtrace")
*** Reached end of trace: (3, "traces/canneal_big3.champsimtrace")
*** Reached end of trace: (8, "traces/canneal_big3.champsimtrace")
*** Reached end of trace: (13, "traces/canneal_big3.champsimtrace")
*** Reached end of trace: (7, "traces/canneal_big2.champsimtrace")
*** Reached end of trace: (2, "traces/canneal_big2.champsimtrace")
*** Reached end of trace: (12, "traces/canneal_big2.champsimtrace")
*** Reached end of trace: (10, "traces/canneal_big0.champsimtrace")
*** Reached end of trace: (0, "traces/canneal_big0.champsimtrace")
*** Reached end of trace: (15, "traces/canneal_big0.champsimtrace")
*** Reached end of trace: (5, "traces/canneal_big0.champsimtrace")
*** Reached end of trace: (11, "traces/canneal_big1.champsimtrace")
*** Reached end of trace: (1, "traces/canneal_big1.champsimtrace")
*** Reached end of trace: (6, "traces/canneal_big1.champsimtrace")
*** Reached end of trace: (4, "traces/canneal_big4.champsimtrace")
*** Reached end of trace: (14, "traces/canneal_big4.champsimtrace")
Heartbeat CPU 14 instructions: 40000001 cycles: 10003232 heartbeat IPC: 4 cumulative IPC: 3.999 (Simulation time: 00 hr 56 min 24 sec)
Heartbeat CPU 4 instructions: 40000001 cycles: 10003232 heartbeat IPC: 4 cumulative IPC: 3.999 (Simulation time: 00 hr 56 min 24 sec)
*** Reached end of trace: (9, "traces/canneal_big4.champsimtrace")
*** Reached end of trace: (3, "traces/canneal_big3.champsimtrace")
*** Reached end of trace: (8, "traces/canneal_big3.champsimtrace")
*** Reached end of trace: (13, "traces/canneal_big3.champsimtrace")
Heartbeat CPU 9 instructions: 40000001 cycles: 10003428 heartbeat IPC: 4 cumulative IPC: 3.999 (Simulation time: 00 hr 56 min 24 sec)
Heartbeat CPU 3 instructions: 40000001 cycles: 10003453 heartbeat IPC: 4 cumulative IPC: 3.999 (Simulation time: 00 hr 56 min 24 sec)
Heartbeat CPU 8 instructions: 40000001 cycles: 10003456 heartbeat IPC: 4 cumulative IPC: 3.999 (Simulation time: 00 hr 56 min 24 sec)
Heartbeat CPU 13 instructions: 40000001 cycles: 10003460 heartbeat IPC: 4 cumulative IPC: 3.999 (Simulation time: 00 hr 56 min 24 sec)
*** Reached end of trace: (7, "traces/canneal_big2.champsimtrace")
*** Reached end of trace: (2, "traces/canneal_big2.champsimtrace")
*** Reached end of trace: (12, "traces/canneal_big2.champsimtrace")
Heartbeat CPU 7 instructions: 40000001 cycles: 10003600 heartbeat IPC: 4 cumulative IPC: 3.999 (Simulation time: 00 hr 56 min 24 sec)
Heartbeat CPU 2 instructions: 40000001 cycles: 10003607 heartbeat IPC: 4 cumulative IPC: 3.999 (Simulation time: 00 hr 56 min 24 sec)
Heartbeat CPU 12 instructions: 40000001 cycles: 10003614 heartbeat IPC: 4 cumulative IPC: 3.999 (Simulation time: 00 hr 56 min 24 sec)
*** Reached end of trace: (4, "traces/canneal_big4.champsimtrace")
*** Reached end of trace: (14, "traces/canneal_big4.champsimtrace")
*** Reached end of trace: (9, "traces/canneal_big4.champsimtrace")
*** Reached end of trace: (3, "traces/canneal_big3.champsimtrace")
*** Reached end of trace: (8, "traces/canneal_big3.champsimtrace")
*** Reached end of trace: (13, "traces/canneal_big3.champsimtrace")
*** Reached end of trace: (7, "traces/canneal_big2.champsimtrace")
*** Reached end of trace: (2, "traces/canneal_big2.champsimtrace")
*** Reached end of trace: (12, "traces/canneal_big2.champsimtrace")
*** Reached end of trace: (10, "traces/canneal_big0.champsimtrace")
*** Reached end of trace: (0, "traces/canneal_big0.champsimtrace")
*** Reached end of trace: (15, "traces/canneal_big0.champsimtrace")
Heartbeat CPU 0 instructions: 30000009 cycles: 11654804 heartbeat IPC: 2.602 cumulative IPC: 2.574 (Simulation time: 01 hr 05 min 20 sec)
Heartbeat CPU 10 instructions: 30000009 cycles: 11654804 heartbeat IPC: 2.602 cumulative IPC: 2.574 (Simulation time: 01 hr 05 min 20 sec)
Heartbeat CPU 15 instructions: 30000009 cycles: 11655000 heartbeat IPC: 2.602 cumulative IPC: 2.574 (Simulation time: 01 hr 05 min 20 sec)
*** Reached end of trace: (5, "traces/canneal_big0.champsimtrace")
Heartbeat CPU 5 instructions: 30000009 cycles: 11686686 heartbeat IPC: 2.594 cumulative IPC: 2.567 (Simulation time: 01 hr 05 min 31 sec)
*** Reached end of trace: (4, "traces/canneal_big4.champsimtrace")
*** Reached end of trace: (14, "traces/canneal_big4.champsimtrace")
Heartbeat CPU 14 instructions: 50000001 cycles: 12503232 heartbeat IPC: 4 cumulative IPC: 3.999 (Simulation time: 01 hr 10 min 13 sec)
Heartbeat CPU 4 instructions: 50000001 cycles: 12503232 heartbeat IPC: 4 cumulative IPC: 3.999 (Simulation time: 01 hr 10 min 13 sec)
Warmup finished CPU 4 instructions: 50000001 cycles: 12503232 cumulative IPC: 3.999 (Simulation time: 01 hr 10 min 13 sec)
Warmup finished CPU 14 instructions: 50000001 cycles: 12503232 cumulative IPC: 3.999 (Simulation time: 01 hr 10 min 13 sec)
*** Reached end of trace: (9, "traces/canneal_big4.champsimtrace")
*** Reached end of trace: (3, "traces/canneal_big3.champsimtrace")
*** Reached end of trace: (8, "traces/canneal_big3.champsimtrace")
*** Reached end of trace: (13, "traces/canneal_big3.champsimtrace")
Heartbeat CPU 9 instructions: 50000001 cycles: 12503428 heartbeat IPC: 4 cumulative IPC: 3.999 (Simulation time: 01 hr 10 min 13 sec)
Warmup finished CPU 9 instructions: 50000001 cycles: 12503428 cumulative IPC: 3.999 (Simulation time: 01 hr 10 min 13 sec)
Heartbeat CPU 3 instructions: 50000001 cycles: 12503453 heartbeat IPC: 4 cumulative IPC: 3.999 (Simulation time: 01 hr 10 min 13 sec)
Warmup finished CPU 3 instructions: 50000001 cycles: 12503453 cumulative IPC: 3.999 (Simulation time: 01 hr 10 min 13 sec)
Heartbeat CPU 8 instructions: 50000001 cycles: 12503456 heartbeat IPC: 4 cumulative IPC: 3.999 (Simulation time: 01 hr 10 min 13 sec)
Warmup finished CPU 8 instructions: 50000001 cycles: 12503456 cumulative IPC: 3.999 (Simulation time: 01 hr 10 min 13 sec)
Heartbeat CPU 13 instructions: 50000001 cycles: 12503460 heartbeat IPC: 4 cumulative IPC: 3.999 (Simulation time: 01 hr 10 min 13 sec)
Warmup finished CPU 13 instructions: 50000001 cycles: 12503460 cumulative IPC: 3.999 (Simulation time: 01 hr 10 min 13 sec)
*** Reached end of trace: (7, "traces/canneal_big2.champsimtrace")
*** Reached end of trace: (2, "traces/canneal_big2.champsimtrace")
*** Reached end of trace: (12, "traces/canneal_big2.champsimtrace")
Heartbeat CPU 7 instructions: 50000001 cycles: 12503600 heartbeat IPC: 4 cumulative IPC: 3.999 (Simulation time: 01 hr 10 min 13 sec)
Warmup finished CPU 7 instructions: 50000001 cycles: 12503600 cumulative IPC: 3.999 (Simulation time: 01 hr 10 min 13 sec)
Heartbeat CPU 2 instructions: 50000001 cycles: 12503607 heartbeat IPC: 4 cumulative IPC: 3.999 (Simulation time: 01 hr 10 min 13 sec)
Warmup finished CPU 2 instructions: 50000001 cycles: 12503607 cumulative IPC: 3.999 (Simulation time: 01 hr 10 min 13 sec)
Heartbeat CPU 12 instructions: 50000001 cycles: 12503614 heartbeat IPC: 4 cumulative IPC: 3.999 (Simulation time: 01 hr 10 min 13 sec)
Warmup finished CPU 12 instructions: 50000001 cycles: 12503614 cumulative IPC: 3.999 (Simulation time: 01 hr 10 min 13 sec)
*** Reached end of trace: (11, "traces/canneal_big1.champsimtrace")
*** Reached end of trace: (1, "traces/canneal_big1.champsimtrace")
Heartbeat CPU 1 instructions: 20000004 cycles: 12798750 heartbeat IPC: 1.759 cumulative IPC: 1.563 (Simulation time: 01 hr 11 min 50 sec)
Heartbeat CPU 11 instructions: 20000004 cycles: 12798757 heartbeat IPC: 1.759 cumulative IPC: 1.563 (Simulation time: 01 hr 11 min 50 sec)
*** Reached end of trace: (6, "traces/canneal_big1.champsimtrace")
Heartbeat CPU 6 instructions: 20000004 cycles: 12834124 heartbeat IPC: 1.751 cumulative IPC: 1.558 (Simulation time: 01 hr 12 min 01 sec)
*** Reached end of trace: (10, "traces/canneal_big0.champsimtrace")
*** Reached end of trace: (0, "traces/canneal_big0.champsimtrace")
*** Reached end of trace: (15, "traces/canneal_big0.champsimtrace")
*** Reached end of trace: (5, "traces/canneal_big0.champsimtrace")
*** Reached end of trace: (4, "traces/canneal_big4.champsimtrace")
*** Reached end of trace: (14, "traces/canneal_big4.champsimtrace")
*** Reached end of trace: (9, "traces/canneal_big4.champsimtrace")
*** Reached end of trace: (3, "traces/canneal_big3.champsimtrace")
*** Reached end of trace: (8, "traces/canneal_big3.champsimtrace")
*** Reached end of trace: (13, "traces/canneal_big3.champsimtrace")
*** Reached end of trace: (7, "traces/canneal_big2.champsimtrace")
*** Reached end of trace: (2, "traces/canneal_big2.champsimtrace")
*** Reached end of trace: (12, "traces/canneal_big2.champsimtrace")
*** Reached end of trace: (4, "traces/canneal_big4.champsimtrace")
*** Reached end of trace: (14, "traces/canneal_big4.champsimtrace")
Heartbeat CPU 14 instructions: 60000001 cycles: 15003232 heartbeat IPC: 4 cumulative IPC: 3.999 (Simulation time: 01 hr 24 min 10 sec)
Heartbeat CPU 4 instructions: 60000001 cycles: 15003232 heartbeat IPC: 4 cumulative IPC: 3.999 (Simulation time: 01 hr 24 min 10 sec)
*** Reached end of trace: (9, "traces/canneal_big4.champsimtrace")
*** Reached end of trace: (3, "traces/canneal_big3.champsimtrace")
*** Reached end of trace: (8, "traces/canneal_big3.champsimtrace")
*** Reached end of trace: (13, "traces/canneal_big3.champsimtrace")
Heartbeat CPU 9 instructions: 60000001 cycles: 15003428 heartbeat IPC: 4 cumulative IPC: 3.999 (Simulation time: 01 hr 24 min 10 sec)
Heartbeat CPU 3 instructions: 60000001 cycles: 15003453 heartbeat IPC: 4 cumulative IPC: 3.999 (Simulation time: 01 hr 24 min 10 sec)
Heartbeat CPU 8 instructions: 60000001 cycles: 15003456 heartbeat IPC: 4 cumulative IPC: 3.999 (Simulation time: 01 hr 24 min 10 sec)
Heartbeat CPU 13 instructions: 60000001 cycles: 15003460 heartbeat IPC: 4 cumulative IPC: 3.999 (Simulation time: 01 hr 24 min 10 sec)
*** Reached end of trace: (7, "traces/canneal_big2.champsimtrace")
*** Reached end of trace: (2, "traces/canneal_big2.champsimtrace")
*** Reached end of trace: (12, "traces/canneal_big2.champsimtrace")
Heartbeat CPU 7 instructions: 60000001 cycles: 15003600 heartbeat IPC: 4 cumulative IPC: 3.999 (Simulation time: 01 hr 24 min 10 sec)
Heartbeat CPU 2 instructions: 60000001 cycles: 15003607 heartbeat IPC: 4 cumulative IPC: 3.999 (Simulation time: 01 hr 24 min 10 sec)
Heartbeat CPU 12 instructions: 60000001 cycles: 15003614 heartbeat IPC: 4 cumulative IPC: 3.999 (Simulation time: 01 hr 24 min 10 sec)
*** Reached end of trace: (10, "traces/canneal_big0.champsimtrace")
*** Reached end of trace: (0, "traces/canneal_big0.champsimtrace")
Heartbeat CPU 0 instructions: 40000012 cycles: 15497658 heartbeat IPC: 2.602 cumulative IPC: 2.581 (Simulation time: 01 hr 26 min 50 sec)
Heartbeat CPU 10 instructions: 40000012 cycles: 15497658 heartbeat IPC: 2.602 cumulative IPC: 2.581 (Simulation time: 01 hr 26 min 50 sec)
*** Reached end of trace: (15, "traces/canneal_big0.champsimtrace")
Heartbeat CPU 15 instructions: 40000012 cycles: 15497911 heartbeat IPC: 2.602 cumulative IPC: 2.581 (Simulation time: 01 hr 26 min 50 sec)
*** Reached end of trace: (5, "traces/canneal_big0.champsimtrace")
Heartbeat CPU 5 instructions: 40000012 cycles: 15542092 heartbeat IPC: 2.594 cumulative IPC: 2.574 (Simulation time: 01 hr 27 min 06 sec)
*** Reached end of trace: (11, "traces/canneal_big1.champsimtrace")
*** Reached end of trace: (1, "traces/canneal_big1.champsimtrace")
*** Reached end of trace: (6, "traces/canneal_big1.champsimtrace")
*** Reached end of trace: (4, "traces/canneal_big4.champsimtrace")
*** Reached end of trace: (14, "traces/canneal_big4.champsimtrace")
*** Reached end of trace: (9, "traces/canneal_big4.champsimtrace")
*** Reached end of trace: (3, "traces/canneal_big3.champsimtrace")
*** Reached end of trace: (8, "traces/canneal_big3.champsimtrace")
*** Reached end of trace: (13, "traces/canneal_big3.champsimtrace")
*** Reached end of trace: (7, "traces/canneal_big2.champsimtrace")
*** Reached end of trace: (2, "traces/canneal_big2.champsimtrace")
*** Reached end of trace: (12, "traces/canneal_big2.champsimtrace")
*** Reached end of trace: (10, "traces/canneal_big0.champsimtrace")
*** Reached end of trace: (0, "traces/canneal_big0.champsimtrace")
*** Reached end of trace: (15, "traces/canneal_big0.champsimtrace")
*** Reached end of trace: (5, "traces/canneal_big0.champsimtrace")
*** Reached end of trace: (4, "traces/canneal_big4.champsimtrace")
*** Reached end of trace: (14, "traces/canneal_big4.champsimtrace")
Heartbeat CPU 14 instructions: 70000001 cycles: 17503232 heartbeat IPC: 4 cumulative IPC: 3.999 (Simulation time: 01 hr 40 min 40 sec)
Heartbeat CPU 4 instructions: 70000001 cycles: 17503232 heartbeat IPC: 4 cumulative IPC: 3.999 (Simulation time: 01 hr 40 min 40 sec)
*** Reached end of trace: (9, "traces/canneal_big4.champsimtrace")
*** Reached end of trace: (3, "traces/canneal_big3.champsimtrace")
*** Reached end of trace: (8, "traces/canneal_big3.champsimtrace")
*** Reached end of trace: (13, "traces/canneal_big3.champsimtrace")
Heartbeat CPU 9 instructions: 70000001 cycles: 17503428 heartbeat IPC: 4 cumulative IPC: 3.999 (Simulation time: 01 hr 40 min 40 sec)
Heartbeat CPU 3 instructions: 70000001 cycles: 17503453 heartbeat IPC: 4 cumulative IPC: 3.999 (Simulation time: 01 hr 40 min 40 sec)
Heartbeat CPU 8 instructions: 70000001 cycles: 17503456 heartbeat IPC: 4 cumulative IPC: 3.999 (Simulation time: 01 hr 40 min 40 sec)
Heartbeat CPU 13 instructions: 70000001 cycles: 17503460 heartbeat IPC: 4 cumulative IPC: 3.999 (Simulation time: 01 hr 40 min 40 sec)
*** Reached end of trace: (7, "traces/canneal_big2.champsimtrace")
*** Reached end of trace: (2, "traces/canneal_big2.champsimtrace")
*** Reached end of trace: (12, "traces/canneal_big2.champsimtrace")
Heartbeat CPU 7 instructions: 70000001 cycles: 17503600 heartbeat IPC: 4 cumulative IPC: 3.999 (Simulation time: 01 hr 40 min 40 sec)
Heartbeat CPU 2 instructions: 70000001 cycles: 17503607 heartbeat IPC: 4 cumulative IPC: 3.999 (Simulation time: 01 hr 40 min 40 sec)
Heartbeat CPU 12 instructions: 70000001 cycles: 17503614 heartbeat IPC: 4 cumulative IPC: 3.999 (Simulation time: 01 hr 40 min 40 sec)
*** Reached end of trace: (11, "traces/canneal_big1.champsimtrace")
*** Reached end of trace: (1, "traces/canneal_big1.champsimtrace")
Heartbeat CPU 1 instructions: 30000004 cycles: 18483461 heartbeat IPC: 1.759 cumulative IPC: 1.623 (Simulation time: 01 hr 49 min 30 sec)
Heartbeat CPU 11 instructions: 30000004 cycles: 18483468 heartbeat IPC: 1.759 cumulative IPC: 1.623 (Simulation time: 01 hr 49 min 30 sec)
*** Reached end of trace: (6, "traces/canneal_big1.champsimtrace")
Heartbeat CPU 6 instructions: 30000004 cycles: 18553327 heartbeat IPC: 1.748 cumulative IPC: 1.617 (Simulation time: 01 hr 50 min 04 sec)
*** Reached end of trace: (4, "traces/canneal_big4.champsimtrace")
*** Reached end of trace: (14, "traces/canneal_big4.champsimtrace")
*** Reached end of trace: (9, "traces/canneal_big4.champsimtrace")
*** Reached end of trace: (3, "traces/canneal_big3.champsimtrace")
*** Reached end of trace: (8, "traces/canneal_big3.champsimtrace")
*** Reached end of trace: (13, "traces/canneal_big3.champsimtrace")
*** Reached end of trace: (7, "traces/canneal_big2.champsimtrace")
*** Reached end of trace: (2, "traces/canneal_big2.champsimtrace")
*** Reached end of trace: (12, "traces/canneal_big2.champsimtrace")
*** Reached end of trace: (10, "traces/canneal_big0.champsimtrace")
*** Reached end of trace: (0, "traces/canneal_big0.champsimtrace")
Warmup finished CPU 10 instructions: 50000000 cycles: 19340486 cumulative IPC: 2.585 (Simulation time: 01 hr 55 min 00 sec)
Heartbeat CPU 10 instructions: 50000015 cycles: 19340489 heartbeat IPC: 2.602 cumulative IPC: 2.585 (Simulation time: 01 hr 55 min 00 sec)
*** Reached end of trace: (15, "traces/canneal_big0.champsimtrace")
Warmup finished CPU 0 instructions: 50000000 cycles: 19340615 cumulative IPC: 2.585 (Simulation time: 01 hr 55 min 00 sec)
Heartbeat CPU 0 instructions: 50000015 cycles: 19340618 heartbeat IPC: 2.602 cumulative IPC: 2.585 (Simulation time: 01 hr 55 min 00 sec)
Warmup finished CPU 15 instructions: 50000000 cycles: 19340811 cumulative IPC: 2.585 (Simulation time: 01 hr 55 min 00 sec)
Heartbeat CPU 15 instructions: 50000015 cycles: 19340814 heartbeat IPC: 2.602 cumulative IPC: 2.585 (Simulation time: 01 hr 55 min 00 sec)
*** Reached end of trace: (5, "traces/canneal_big0.champsimtrace")
Warmup finished CPU 5 instructions: 50000000 cycles: 19397415 cumulative IPC: 2.578 (Simulation time: 01 hr 55 min 23 sec)
Heartbeat CPU 5 instructions: 50000015 cycles: 19397418 heartbeat IPC: 2.594 cumulative IPC: 2.578 (Simulation time: 01 hr 55 min 23 sec)
*** Reached end of trace: (4, "traces/canneal_big4.champsimtrace")
*** Reached end of trace: (14, "traces/canneal_big4.champsimtrace")
Heartbeat CPU 14 instructions: 80000001 cycles: 20003232 heartbeat IPC: 4 cumulative IPC: 3.999 (Simulation time: 01 hr 59 min 18 sec)
Heartbeat CPU 4 instructions: 80000001 cycles: 20003232 heartbeat IPC: 4 cumulative IPC: 3.999 (Simulation time: 01 hr 59 min 18 sec)
*** Reached end of trace: (9, "traces/canneal_big4.champsimtrace")
*** Reached end of trace: (3, "traces/canneal_big3.champsimtrace")
*** Reached end of trace: (8, "traces/canneal_big3.champsimtrace")
*** Reached end of trace: (13, "traces/canneal_big3.champsimtrace")
Heartbeat CPU 9 instructions: 80000001 cycles: 20003428 heartbeat IPC: 4 cumulative IPC: 3.999 (Simulation time: 01 hr 59 min 18 sec)
Heartbeat CPU 3 instructions: 80000001 cycles: 20003453 heartbeat IPC: 4 cumulative IPC: 3.999 (Simulation time: 01 hr 59 min 18 sec)
Heartbeat CPU 8 instructions: 80000001 cycles: 20003456 heartbeat IPC: 4 cumulative IPC: 3.999 (Simulation time: 01 hr 59 min 18 sec)
Heartbeat CPU 13 instructions: 80000001 cycles: 20003460 heartbeat IPC: 4 cumulative IPC: 3.999 (Simulation time: 01 hr 59 min 18 sec)
*** Reached end of trace: (7, "traces/canneal_big2.champsimtrace")
*** Reached end of trace: (2, "traces/canneal_big2.champsimtrace")
*** Reached end of trace: (12, "traces/canneal_big2.champsimtrace")
Heartbeat CPU 7 instructions: 80000001 cycles: 20003600 heartbeat IPC: 4 cumulative IPC: 3.999 (Simulation time: 01 hr 59 min 18 sec)
Heartbeat CPU 2 instructions: 80000001 cycles: 20003607 heartbeat IPC: 4 cumulative IPC: 3.999 (Simulation time: 01 hr 59 min 18 sec)
Heartbeat CPU 12 instructions: 80000001 cycles: 20003614 heartbeat IPC: 4 cumulative IPC: 3.999 (Simulation time: 01 hr 59 min 18 sec)
*** Reached end of trace: (4, "traces/canneal_big4.champsimtrace")
*** Reached end of trace: (14, "traces/canneal_big4.champsimtrace")
*** Reached end of trace: (9, "traces/canneal_big4.champsimtrace")
*** Reached end of trace: (3, "traces/canneal_big3.champsimtrace")
*** Reached end of trace: (8, "traces/canneal_big3.champsimtrace")
*** Reached end of trace: (13, "traces/canneal_big3.champsimtrace")
*** Reached end of trace: (7, "traces/canneal_big2.champsimtrace")
*** Reached end of trace: (2, "traces/canneal_big2.champsimtrace")
*** Reached end of trace: (12, "traces/canneal_big2.champsimtrace")
*** Reached end of trace: (10, "traces/canneal_big0.champsimtrace")
*** Reached end of trace: (0, "traces/canneal_big0.champsimtrace")
*** Reached end of trace: (15, "traces/canneal_big0.champsimtrace")
*** Reached end of trace: (5, "traces/canneal_big0.champsimtrace")
*** Reached end of trace: (11, "traces/canneal_big1.champsimtrace")
*** Reached end of trace: (1, "traces/canneal_big1.champsimtrace")
*** Reached end of trace: (6, "traces/canneal_big1.champsimtrace")
*** Reached end of trace: (4, "traces/canneal_big4.champsimtrace")
*** Reached end of trace: (14, "traces/canneal_big4.champsimtrace")
Heartbeat CPU 14 instructions: 90000001 cycles: 22503232 heartbeat IPC: 4 cumulative IPC: 3.999 (Simulation time: 02 hr 21 min 51 sec)
Heartbeat CPU 4 instructions: 90000001 cycles: 22503232 heartbeat IPC: 4 cumulative IPC: 3.999 (Simulation time: 02 hr 21 min 51 sec)
*** Reached end of trace: (9, "traces/canneal_big4.champsimtrace")
*** Reached end of trace: (3, "traces/canneal_big3.champsimtrace")
*** Reached end of trace: (8, "traces/canneal_big3.champsimtrace")
*** Reached end of trace: (13, "traces/canneal_big3.champsimtrace")
Heartbeat CPU 9 instructions: 90000001 cycles: 22503428 heartbeat IPC: 4 cumulative IPC: 3.999 (Simulation time: 02 hr 21 min 51 sec)
Heartbeat CPU 3 instructions: 90000001 cycles: 22503453 heartbeat IPC: 4 cumulative IPC: 3.999 (Simulation time: 02 hr 21 min 51 sec)
Heartbeat CPU 8 instructions: 90000001 cycles: 22503456 heartbeat IPC: 4 cumulative IPC: 3.999 (Simulation time: 02 hr 21 min 51 sec)
Heartbeat CPU 13 instructions: 90000001 cycles: 22503460 heartbeat IPC: 4 cumulative IPC: 3.999 (Simulation time: 02 hr 21 min 51 sec)
*** Reached end of trace: (7, "traces/canneal_big2.champsimtrace")
*** Reached end of trace: (2, "traces/canneal_big2.champsimtrace")
*** Reached end of trace: (12, "traces/canneal_big2.champsimtrace")
Heartbeat CPU 7 instructions: 90000001 cycles: 22503600 heartbeat IPC: 4 cumulative IPC: 3.999 (Simulation time: 02 hr 21 min 51 sec)
Heartbeat CPU 2 instructions: 90000001 cycles: 22503607 heartbeat IPC: 4 cumulative IPC: 3.999 (Simulation time: 02 hr 21 min 51 sec)
Heartbeat CPU 12 instructions: 90000001 cycles: 22503614 heartbeat IPC: 4 cumulative IPC: 3.999 (Simulation time: 02 hr 21 min 51 sec)
*** Reached end of trace: (10, "traces/canneal_big0.champsimtrace")
*** Reached end of trace: (0, "traces/canneal_big0.champsimtrace")
Heartbeat CPU 10 instructions: 60000018 cycles: 23183280 heartbeat IPC: 2.602 cumulative IPC: 2.588 (Simulation time: 02 hr 27 min 47 sec)
*** Reached end of trace: (15, "traces/canneal_big0.champsimtrace")
Heartbeat CPU 0 instructions: 60000018 cycles: 23183484 heartbeat IPC: 2.602 cumulative IPC: 2.588 (Simulation time: 02 hr 27 min 47 sec)
Heartbeat CPU 15 instructions: 60000018 cycles: 23183635 heartbeat IPC: 2.602 cumulative IPC: 2.588 (Simulation time: 02 hr 27 min 48 sec)
*** Reached end of trace: (5, "traces/canneal_big0.champsimtrace")
Heartbeat CPU 5 instructions: 60000018 cycles: 23252899 heartbeat IPC: 2.594 cumulative IPC: 2.58 (Simulation time: 02 hr 28 min 26 sec)
*** Reached end of trace: (4, "traces/canneal_big4.champsimtrace")
*** Reached end of trace: (14, "traces/canneal_big4.champsimtrace")
*** Reached end of trace: (9, "traces/canneal_big4.champsimtrace")
*** Reached end of trace: (3, "traces/canneal_big3.champsimtrace")
*** Reached end of trace: (8, "traces/canneal_big3.champsimtrace")
*** Reached end of trace: (13, "traces/canneal_big3.champsimtrace")
*** Reached end of trace: (7, "traces/canneal_big2.champsimtrace")
*** Reached end of trace: (2, "traces/canneal_big2.champsimtrace")
*** Reached end of trace: (12, "traces/canneal_big2.champsimtrace")
*** Reached end of trace: (11, "traces/canneal_big1.champsimtrace")
*** Reached end of trace: (1, "traces/canneal_big1.champsimtrace")
Heartbeat CPU 1 instructions: 40000006 cycles: 24168318 heartbeat IPC: 1.759 cumulative IPC: 1.655 (Simulation time: 02 hr 36 min 28 sec)
Heartbeat CPU 11 instructions: 40000006 cycles: 24168320 heartbeat IPC: 1.759 cumulative IPC: 1.655 (Simulation time: 02 hr 36 min 28 sec)
*** Reached end of trace: (6, "traces/canneal_big1.champsimtrace")
Heartbeat CPU 6 instructions: 40000006 cycles: 24274986 heartbeat IPC: 1.748 cumulative IPC: 1.648 (Simulation time: 02 hr 37 min 24 sec)
*** Reached end of trace: (4, "traces/canneal_big4.champsimtrace")
*** Reached end of trace: (14, "traces/canneal_big4.champsimtrace")
Heartbeat CPU 14 instructions: 100000001 cycles: 25003232 heartbeat IPC: 4 cumulative IPC: 3.999 (Simulation time: 02 hr 43 min 37 sec)
Heartbeat CPU 4 instructions: 100000001 cycles: 25003232 heartbeat IPC: 4 cumulative IPC: 3.999 (Simulation time: 02 hr 43 min 37 sec)
*** Reached end of trace: (9, "traces/canneal_big4.champsimtrace")
*** Reached end of trace: (3, "traces/canneal_big3.champsimtrace")
*** Reached end of trace: (8, "traces/canneal_big3.champsimtrace")
*** Reached end of trace: (13, "traces/canneal_big3.champsimtrace")
Heartbeat CPU 9 instructions: 100000001 cycles: 25003428 heartbeat IPC: 4 cumulative IPC: 3.999 (Simulation time: 02 hr 43 min 37 sec)
Heartbeat CPU 3 instructions: 100000001 cycles: 25003453 heartbeat IPC: 4 cumulative IPC: 3.999 (Simulation time: 02 hr 43 min 37 sec)
Heartbeat CPU 8 instructions: 100000001 cycles: 25003456 heartbeat IPC: 4 cumulative IPC: 3.999 (Simulation time: 02 hr 43 min 37 sec)
Heartbeat CPU 13 instructions: 100000001 cycles: 25003460 heartbeat IPC: 4 cumulative IPC: 3.999 (Simulation time: 02 hr 43 min 37 sec)
*** Reached end of trace: (7, "traces/canneal_big2.champsimtrace")
*** Reached end of trace: (2, "traces/canneal_big2.champsimtrace")
*** Reached end of trace: (12, "traces/canneal_big2.champsimtrace")
Heartbeat CPU 7 instructions: 100000001 cycles: 25003600 heartbeat IPC: 4 cumulative IPC: 3.999 (Simulation time: 02 hr 43 min 37 sec)
Heartbeat CPU 2 instructions: 100000001 cycles: 25003607 heartbeat IPC: 4 cumulative IPC: 3.999 (Simulation time: 02 hr 43 min 37 sec)
Heartbeat CPU 12 instructions: 100000001 cycles: 25003614 heartbeat IPC: 4 cumulative IPC: 3.999 (Simulation time: 02 hr 43 min 37 sec)
*** Reached end of trace: (10, "traces/canneal_big0.champsimtrace")
*** Reached end of trace: (0, "traces/canneal_big0.champsimtrace")
*** Reached end of trace: (15, "traces/canneal_big0.champsimtrace")
*** Reached end of trace: (5, "traces/canneal_big0.champsimtrace")
*** Reached end of trace: (4, "traces/canneal_big4.champsimtrace")
*** Reached end of trace: (14, "traces/canneal_big4.champsimtrace")
*** Reached end of trace: (9, "traces/canneal_big4.champsimtrace")
*** Reached end of trace: (3, "traces/canneal_big3.champsimtrace")
*** Reached end of trace: (8, "traces/canneal_big3.champsimtrace")
*** Reached end of trace: (13, "traces/canneal_big3.champsimtrace")
*** Reached end of trace: (7, "traces/canneal_big2.champsimtrace")
*** Reached end of trace: (2, "traces/canneal_big2.champsimtrace")
*** Reached end of trace: (12, "traces/canneal_big2.champsimtrace")
*** Reached end of trace: (11, "traces/canneal_big1.champsimtrace")
*** Reached end of trace: (1, "traces/canneal_big1.champsimtrace")
*** Reached end of trace: (10, "traces/canneal_big0.champsimtrace")
Heartbeat CPU 10 instructions: 70000021 cycles: 27026001 heartbeat IPC: 2.602 cumulative IPC: 2.59 (Simulation time: 03 hr 01 min 19 sec)
*** Reached end of trace: (0, "traces/canneal_big0.champsimtrace")
*** Reached end of trace: (15, "traces/canneal_big0.champsimtrace")
Heartbeat CPU 0 instructions: 70000021 cycles: 27026305 heartbeat IPC: 2.602 cumulative IPC: 2.59 (Simulation time: 03 hr 01 min 19 sec)
Heartbeat CPU 15 instructions: 70000021 cycles: 27026458 heartbeat IPC: 2.602 cumulative IPC: 2.59 (Simulation time: 03 hr 01 min 19 sec)
*** Reached end of trace: (5, "traces/canneal_big0.champsimtrace")
Heartbeat CPU 5 instructions: 70000021 cycles: 27108255 heartbeat IPC: 2.594 cumulative IPC: 2.582 (Simulation time: 03 hr 02 min 05 sec)
*** Reached end of trace: (6, "traces/canneal_big1.champsimtrace")
*** Reached end of trace: (4, "traces/canneal_big4.champsimtrace")
*** Reached end of trace: (14, "traces/canneal_big4.champsimtrace")
Heartbeat CPU 14 instructions: 110000001 cycles: 27503232 heartbeat IPC: 4 cumulative IPC: 4 (Simulation time: 03 hr 05 min 45 sec)
Heartbeat CPU 4 instructions: 110000001 cycles: 27503232 heartbeat IPC: 4 cumulative IPC: 4 (Simulation time: 03 hr 05 min 45 sec)
*** Reached end of trace: (9, "traces/canneal_big4.champsimtrace")
*** Reached end of trace: (3, "traces/canneal_big3.champsimtrace")
*** Reached end of trace: (8, "traces/canneal_big3.champsimtrace")
*** Reached end of trace: (13, "traces/canneal_big3.champsimtrace")
Heartbeat CPU 9 instructions: 110000001 cycles: 27503428 heartbeat IPC: 4 cumulative IPC: 4 (Simulation time: 03 hr 05 min 45 sec)
Heartbeat CPU 3 instructions: 110000001 cycles: 27503453 heartbeat IPC: 4 cumulative IPC: 3.999 (Simulation time: 03 hr 05 min 45 sec)
Heartbeat CPU 8 instructions: 110000001 cycles: 27503456 heartbeat IPC: 4 cumulative IPC: 3.999 (Simulation time: 03 hr 05 min 45 sec)
Heartbeat CPU 13 instructions: 110000001 cycles: 27503460 heartbeat IPC: 4 cumulative IPC: 3.999 (Simulation time: 03 hr 05 min 45 sec)
*** Reached end of trace: (7, "traces/canneal_big2.champsimtrace")
*** Reached end of trace: (2, "traces/canneal_big2.champsimtrace")
*** Reached end of trace: (12, "traces/canneal_big2.champsimtrace")
Heartbeat CPU 7 instructions: 110000001 cycles: 27503600 heartbeat IPC: 4 cumulative IPC: 3.999 (Simulation time: 03 hr 05 min 45 sec)
Heartbeat CPU 2 instructions: 110000001 cycles: 27503607 heartbeat IPC: 4 cumulative IPC: 3.999 (Simulation time: 03 hr 05 min 45 sec)
Heartbeat CPU 12 instructions: 110000001 cycles: 27503614 heartbeat IPC: 4 cumulative IPC: 3.999 (Simulation time: 03 hr 05 min 45 sec)
*** Reached end of trace: (4, "traces/canneal_big4.champsimtrace")
*** Reached end of trace: (14, "traces/canneal_big4.champsimtrace")
*** Reached end of trace: (9, "traces/canneal_big4.champsimtrace")
*** Reached end of trace: (3, "traces/canneal_big3.champsimtrace")
*** Reached end of trace: (8, "traces/canneal_big3.champsimtrace")
*** Reached end of trace: (13, "traces/canneal_big3.champsimtrace")
*** Reached end of trace: (7, "traces/canneal_big2.champsimtrace")
*** Reached end of trace: (2, "traces/canneal_big2.champsimtrace")
*** Reached end of trace: (12, "traces/canneal_big2.champsimtrace")
*** Reached end of trace: (10, "traces/canneal_big0.champsimtrace")
*** Reached end of trace: (0, "traces/canneal_big0.champsimtrace")
*** Reached end of trace: (15, "traces/canneal_big0.champsimtrace")
*** Reached end of trace: (5, "traces/canneal_big0.champsimtrace")
*** Reached end of trace: (11, "traces/canneal_big1.champsimtrace")
*** Reached end of trace: (1, "traces/canneal_big1.champsimtrace")
Warmup finished CPU 1 instructions: 50000000 cycles: 29853101 cumulative IPC: 1.675 (Simulation time: 03 hr 25 min 58 sec)
Warmup finished CPU 11 instructions: 50000000 cycles: 29853108 cumulative IPC: 1.675 (Simulation time: 03 hr 25 min 58 sec)
Heartbeat CPU 1 instructions: 50000008 cycles: 29853124 heartbeat IPC: 1.759 cumulative IPC: 1.675 (Simulation time: 03 hr 25 min 58 sec)
Heartbeat CPU 11 instructions: 50000008 cycles: 29853127 heartbeat IPC: 1.759 cumulative IPC: 1.675 (Simulation time: 03 hr 25 min 58 sec)
*** Reached end of trace: (6, "traces/canneal_big1.champsimtrace")
Warmup finished CPU 6 instructions: 50000000 cycles: 29997582 cumulative IPC: 1.667 (Simulation time: 03 hr 27 min 10 sec)
Warmup complete CPU 9 instructions: 119976617 cycles: 29997582 cumulative IPC: 4 (Simulation time: 03 hr 27 min 10 sec)
Warmup complete CPU 8 instructions: 119976505 cycles: 29997582 cumulative IPC: 4 (Simulation time: 03 hr 27 min 10 sec)
Warmup complete CPU 7 instructions: 119975929 cycles: 29997582 cumulative IPC: 4 (Simulation time: 03 hr 27 min 10 sec)
Warmup complete CPU 6 instructions: 50000000 cycles: 29997582 cumulative IPC: 1.667 (Simulation time: 03 hr 27 min 10 sec)
Warmup complete CPU 5 instructions: 77671019 cycles: 29997582 cumulative IPC: 2.589 (Simulation time: 03 hr 27 min 10 sec)
Warmup complete CPU 4 instructions: 119977401 cycles: 29997582 cumulative IPC: 4 (Simulation time: 03 hr 27 min 10 sec)
Warmup complete CPU 3 instructions: 119976517 cycles: 29997582 cumulative IPC: 4 (Simulation time: 03 hr 27 min 10 sec)
Warmup complete CPU 2 instructions: 119975901 cycles: 29997582 cumulative IPC: 4 (Simulation time: 03 hr 27 min 10 sec)
Warmup complete CPU 15 instructions: 77894359 cycles: 29997582 cumulative IPC: 2.597 (Simulation time: 03 hr 27 min 10 sec)
Warmup complete CPU 14 instructions: 119977401 cycles: 29997582 cumulative IPC: 4 (Simulation time: 03 hr 27 min 10 sec)
Warmup complete CPU 13 instructions: 119976489 cycles: 29997582 cumulative IPC: 4 (Simulation time: 03 hr 27 min 10 sec)
Warmup complete CPU 12 instructions: 119975873 cycles: 29997582 cumulative IPC: 4 (Simulation time: 03 hr 27 min 10 sec)
Warmup complete CPU 11 instructions: 50216901 cycles: 29997582 cumulative IPC: 1.674 (Simulation time: 03 hr 27 min 10 sec)
Warmup complete CPU 10 instructions: 77895649 cycles: 29997582 cumulative IPC: 2.597 (Simulation time: 03 hr 27 min 10 sec)
Warmup complete CPU 1 instructions: 50216913 cycles: 29997582 cumulative IPC: 1.674 (Simulation time: 03 hr 27 min 10 sec)
Warmup complete CPU 0 instructions: 77894789 cycles: 29997582 cumulative IPC: 2.597 (Simulation time: 03 hr 27 min 10 sec)
Heartbeat CPU 6 instructions: 50000008 cycles: 29998084 heartbeat IPC: 1.747 cumulative IPC: 0.01594 (Simulation time: 03 hr 27 min 10 sec)
*** Reached end of trace: (4, "traces/canneal_big4.champsimtrace")
*** Reached end of trace: (14, "traces/canneal_big4.champsimtrace")
Heartbeat CPU 14 instructions: 120000001 cycles: 30003232 heartbeat IPC: 4 cumulative IPC: 4 (Simulation time: 03 hr 27 min 13 sec)
Heartbeat CPU 4 instructions: 120000001 cycles: 30003232 heartbeat IPC: 4 cumulative IPC: 4 (Simulation time: 03 hr 27 min 13 sec)
*** Reached end of trace: (9, "traces/canneal_big4.champsimtrace")
*** Reached end of trace: (3, "traces/canneal_big3.champsimtrace")
*** Reached end of trace: (8, "traces/canneal_big3.champsimtrace")
*** Reached end of trace: (13, "traces/canneal_big3.champsimtrace")
Heartbeat CPU 9 instructions: 120000001 cycles: 30003428 heartbeat IPC: 4 cumulative IPC: 4 (Simulation time: 03 hr 27 min 13 sec)
Heartbeat CPU 3 instructions: 120000001 cycles: 30003453 heartbeat IPC: 4 cumulative IPC: 4 (Simulation time: 03 hr 27 min 13 sec)
Heartbeat CPU 8 instructions: 120000001 cycles: 30003456 heartbeat IPC: 4 cumulative IPC: 4 (Simulation time: 03 hr 27 min 13 sec)
Heartbeat CPU 13 instructions: 120000001 cycles: 30003460 heartbeat IPC: 4 cumulative IPC: 4 (Simulation time: 03 hr 27 min 13 sec)
*** Reached end of trace: (7, "traces/canneal_big2.champsimtrace")
*** Reached end of trace: (2, "traces/canneal_big2.champsimtrace")
*** Reached end of trace: (12, "traces/canneal_big2.champsimtrace")
Heartbeat CPU 7 instructions: 120000001 cycles: 30003600 heartbeat IPC: 4 cumulative IPC: 4 (Simulation time: 03 hr 27 min 13 sec)
Heartbeat CPU 2 instructions: 120000001 cycles: 30003607 heartbeat IPC: 4 cumulative IPC: 4 (Simulation time: 03 hr 27 min 13 sec)
Heartbeat CPU 12 instructions: 120000001 cycles: 30003614 heartbeat IPC: 4 cumulative IPC: 4 (Simulation time: 03 hr 27 min 13 sec)
*** Reached end of trace: (0, "traces/canneal_big0.champsimtrace")
*** Reached end of trace: (10, "traces/canneal_big0.champsimtrace")
*** Reached end of trace: (15, "traces/canneal_big0.champsimtrace")
Heartbeat CPU 0 instructions: 80000024 cycles: 30773297 heartbeat IPC: 2.669 cumulative IPC: 2.714 (Simulation time: 03 hr 33 min 38 sec)
Heartbeat CPU 10 instructions: 80000024 cycles: 30773298 heartbeat IPC: 2.669 cumulative IPC: 2.713 (Simulation time: 03 hr 33 min 38 sec)
Heartbeat CPU 15 instructions: 80000024 cycles: 30773300 heartbeat IPC: 2.669 cumulative IPC: 2.714 (Simulation time: 03 hr 33 min 38 sec)
*** Reached end of trace: (5, "traces/canneal_big0.champsimtrace")
Heartbeat CPU 5 instructions: 80000024 cycles: 30893975 heartbeat IPC: 2.642 cumulative IPC: 2.598 (Simulation time: 03 hr 34 min 41 sec)
*** Reached end of trace: (4, "traces/canneal_big4.champsimtrace")
*** Reached end of trace: (14, "traces/canneal_big4.champsimtrace")
*** Reached end of trace: (9, "traces/canneal_big4.champsimtrace")
*** Reached end of trace: (3, "traces/canneal_big3.champsimtrace")
*** Reached end of trace: (8, "traces/canneal_big3.champsimtrace")
*** Reached end of trace: (13, "traces/canneal_big3.champsimtrace")
*** Reached end of trace: (7, "traces/canneal_big2.champsimtrace")
*** Reached end of trace: (2, "traces/canneal_big2.champsimtrace")
*** Reached end of trace: (12, "traces/canneal_big2.champsimtrace")
*** Reached end of trace: (4, "traces/canneal_big4.champsimtrace")
*** Reached end of trace: (14, "traces/canneal_big4.champsimtrace")
Heartbeat CPU 14 instructions: 130000001 cycles: 32503232 heartbeat IPC: 4 cumulative IPC: 4 (Simulation time: 03 hr 47 min 35 sec)
Heartbeat CPU 4 instructions: 130000001 cycles: 32503232 heartbeat IPC: 4 cumulative IPC: 4 (Simulation time: 03 hr 47 min 35 sec)
*** Reached end of trace: (9, "traces/canneal_big4.champsimtrace")
*** Reached end of trace: (3, "traces/canneal_big3.champsimtrace")
*** Reached end of trace: (8, "traces/canneal_big3.champsimtrace")
*** Reached end of trace: (13, "traces/canneal_big3.champsimtrace")
Heartbeat CPU 9 instructions: 130000001 cycles: 32503428 heartbeat IPC: 4 cumulative IPC: 4 (Simulation time: 03 hr 47 min 35 sec)
Heartbeat CPU 3 instructions: 130000001 cycles: 32503453 heartbeat IPC: 4 cumulative IPC: 4 (Simulation time: 03 hr 47 min 35 sec)
Heartbeat CPU 8 instructions: 130000001 cycles: 32503456 heartbeat IPC: 4 cumulative IPC: 4 (Simulation time: 03 hr 47 min 35 sec)
Heartbeat CPU 13 instructions: 130000001 cycles: 32503460 heartbeat IPC: 4 cumulative IPC: 4 (Simulation time: 03 hr 47 min 35 sec)
*** Reached end of trace: (7, "traces/canneal_big2.champsimtrace")
*** Reached end of trace: (2, "traces/canneal_big2.champsimtrace")
*** Reached end of trace: (12, "traces/canneal_big2.champsimtrace")
Heartbeat CPU 7 instructions: 130000001 cycles: 32503600 heartbeat IPC: 4 cumulative IPC: 4 (Simulation time: 03 hr 47 min 35 sec)
Heartbeat CPU 2 instructions: 130000001 cycles: 32503607 heartbeat IPC: 4 cumulative IPC: 4 (Simulation time: 03 hr 47 min 35 sec)
Heartbeat CPU 12 instructions: 130000001 cycles: 32503614 heartbeat IPC: 4 cumulative IPC: 4 (Simulation time: 03 hr 47 min 35 sec)
*** Reached end of trace: (10, "traces/canneal_big0.champsimtrace")
*** Reached end of trace: (0, "traces/canneal_big0.champsimtrace")
*** Reached end of trace: (15, "traces/canneal_big0.champsimtrace")
*** Reached end of trace: (5, "traces/canneal_big0.champsimtrace")
*** Reached end of trace: (4, "traces/canneal_big4.champsimtrace")
*** Reached end of trace: (14, "traces/canneal_big4.champsimtrace")
*** Reached end of trace: (9, "traces/canneal_big4.champsimtrace")
*** Reached end of trace: (3, "traces/canneal_big3.champsimtrace")
*** Reached end of trace: (8, "traces/canneal_big3.champsimtrace")
*** Reached end of trace: (13, "traces/canneal_big3.champsimtrace")
*** Reached end of trace: (7, "traces/canneal_big2.champsimtrace")
*** Reached end of trace: (2, "traces/canneal_big2.champsimtrace")
*** Reached end of trace: (12, "traces/canneal_big2.champsimtrace")
*** Reached end of trace: (10, "traces/canneal_big0.champsimtrace")
*** Reached end of trace: (0, "traces/canneal_big0.champsimtrace")
*** Reached end of trace: (15, "traces/canneal_big0.champsimtrace")
Heartbeat CPU 0 instructions: 90000027 cycles: 34557207 heartbeat IPC: 2.643 cumulative IPC: 2.655 (Simulation time: 04 hr 03 min 58 sec)
Heartbeat CPU 10 instructions: 90000027 cycles: 34557207 heartbeat IPC: 2.643 cumulative IPC: 2.655 (Simulation time: 04 hr 03 min 58 sec)
Heartbeat CPU 15 instructions: 90000027 cycles: 34557208 heartbeat IPC: 2.643 cumulative IPC: 2.655 (Simulation time: 04 hr 03 min 58 sec)
*** Reached end of trace: (5, "traces/canneal_big0.champsimtrace")
Heartbeat CPU 5 instructions: 90000027 cycles: 34799041 heartbeat IPC: 2.561 cumulative IPC: 2.568 (Simulation time: 04 hr 06 min 03 sec)
*** Reached end of trace: (4, "traces/canneal_big4.champsimtrace")
*** Reached end of trace: (14, "traces/canneal_big4.champsimtrace")
Heartbeat CPU 14 instructions: 140000001 cycles: 35003232 heartbeat IPC: 4 cumulative IPC: 4 (Simulation time: 04 hr 07 min 47 sec)
Heartbeat CPU 4 instructions: 140000001 cycles: 35003232 heartbeat IPC: 4 cumulative IPC: 4 (Simulation time: 04 hr 07 min 47 sec)
*** Reached end of trace: (9, "traces/canneal_big4.champsimtrace")
*** Reached end of trace: (3, "traces/canneal_big3.champsimtrace")
*** Reached end of trace: (8, "traces/canneal_big3.champsimtrace")
*** Reached end of trace: (13, "traces/canneal_big3.champsimtrace")
Heartbeat CPU 9 instructions: 140000001 cycles: 35003428 heartbeat IPC: 4 cumulative IPC: 4 (Simulation time: 04 hr 07 min 47 sec)
Heartbeat CPU 3 instructions: 140000001 cycles: 35003453 heartbeat IPC: 4 cumulative IPC: 4 (Simulation time: 04 hr 07 min 47 sec)
Heartbeat CPU 8 instructions: 140000001 cycles: 35003456 heartbeat IPC: 4 cumulative IPC: 4 (Simulation time: 04 hr 07 min 47 sec)
Heartbeat CPU 13 instructions: 140000001 cycles: 35003460 heartbeat IPC: 4 cumulative IPC: 4 (Simulation time: 04 hr 07 min 48 sec)
*** Reached end of trace: (7, "traces/canneal_big2.champsimtrace")
*** Reached end of trace: (2, "traces/canneal_big2.champsimtrace")
*** Reached end of trace: (12, "traces/canneal_big2.champsimtrace")
Heartbeat CPU 7 instructions: 140000001 cycles: 35003600 heartbeat IPC: 4 cumulative IPC: 4 (Simulation time: 04 hr 07 min 48 sec)
Heartbeat CPU 2 instructions: 140000001 cycles: 35003607 heartbeat IPC: 4 cumulative IPC: 4 (Simulation time: 04 hr 07 min 48 sec)
Heartbeat CPU 12 instructions: 140000001 cycles: 35003614 heartbeat IPC: 4 cumulative IPC: 4 (Simulation time: 04 hr 07 min 48 sec)
*** Reached end of trace: (4, "traces/canneal_big4.champsimtrace")
*** Reached end of trace: (14, "traces/canneal_big4.champsimtrace")
*** Reached end of trace: (9, "traces/canneal_big4.champsimtrace")
*** Reached end of trace: (3, "traces/canneal_big3.champsimtrace")
*** Reached end of trace: (8, "traces/canneal_big3.champsimtrace")
*** Reached end of trace: (13, "traces/canneal_big3.champsimtrace")
*** Reached end of trace: (7, "traces/canneal_big2.champsimtrace")
*** Reached end of trace: (2, "traces/canneal_big2.champsimtrace")
*** Reached end of trace: (12, "traces/canneal_big2.champsimtrace")
*** Reached end of trace: (10, "traces/canneal_big0.champsimtrace")
*** Reached end of trace: (0, "traces/canneal_big0.champsimtrace")
*** Reached end of trace: (15, "traces/canneal_big0.champsimtrace")
*** Reached end of trace: (5, "traces/canneal_big0.champsimtrace")
*** Reached end of trace: (4, "traces/canneal_big4.champsimtrace")
*** Reached end of trace: (14, "traces/canneal_big4.champsimtrace")
Heartbeat CPU 14 instructions: 150000001 cycles: 37503232 heartbeat IPC: 4 cumulative IPC: 4 (Simulation time: 04 hr 27 min 57 sec)
Heartbeat CPU 4 instructions: 150000001 cycles: 37503232 heartbeat IPC: 4 cumulative IPC: 4 (Simulation time: 04 hr 27 min 57 sec)
*** Reached end of trace: (9, "traces/canneal_big4.champsimtrace")
*** Reached end of trace: (3, "traces/canneal_big3.champsimtrace")
*** Reached end of trace: (8, "traces/canneal_big3.champsimtrace")
*** Reached end of trace: (13, "traces/canneal_big3.champsimtrace")
Heartbeat CPU 9 instructions: 150000001 cycles: 37503428 heartbeat IPC: 4 cumulative IPC: 4 (Simulation time: 04 hr 27 min 57 sec)
Heartbeat CPU 3 instructions: 150000001 cycles: 37503453 heartbeat IPC: 4 cumulative IPC: 4 (Simulation time: 04 hr 27 min 57 sec)
Heartbeat CPU 8 instructions: 150000001 cycles: 37503456 heartbeat IPC: 4 cumulative IPC: 4 (Simulation time: 04 hr 27 min 57 sec)
Heartbeat CPU 13 instructions: 150000001 cycles: 37503460 heartbeat IPC: 4 cumulative IPC: 4 (Simulation time: 04 hr 27 min 57 sec)
*** Reached end of trace: (7, "traces/canneal_big2.champsimtrace")
*** Reached end of trace: (2, "traces/canneal_big2.champsimtrace")
*** Reached end of trace: (12, "traces/canneal_big2.champsimtrace")
Heartbeat CPU 7 instructions: 150000001 cycles: 37503600 heartbeat IPC: 4 cumulative IPC: 4 (Simulation time: 04 hr 27 min 57 sec)
Heartbeat CPU 2 instructions: 150000001 cycles: 37503607 heartbeat IPC: 4 cumulative IPC: 4 (Simulation time: 04 hr 27 min 57 sec)
Heartbeat CPU 12 instructions: 150000001 cycles: 37503614 heartbeat IPC: 4 cumulative IPC: 4 (Simulation time: 04 hr 27 min 57 sec)
*** Reached end of trace: (10, "traces/canneal_big0.champsimtrace")
*** Reached end of trace: (0, "traces/canneal_big0.champsimtrace")
*** Reached end of trace: (15, "traces/canneal_big0.champsimtrace")
Heartbeat CPU 0 instructions: 100000030 cycles: 38339815 heartbeat IPC: 2.644 cumulative IPC: 2.65 (Simulation time: 04 hr 34 min 59 sec)
Heartbeat CPU 10 instructions: 100000030 cycles: 38339815 heartbeat IPC: 2.644 cumulative IPC: 2.65 (Simulation time: 04 hr 34 min 59 sec)
Heartbeat CPU 15 instructions: 100000030 cycles: 38339816 heartbeat IPC: 2.644 cumulative IPC: 2.65 (Simulation time: 04 hr 34 min 59 sec)
*** Reached end of trace: (5, "traces/canneal_big0.champsimtrace")
Heartbeat CPU 5 instructions: 100000030 cycles: 38698757 heartbeat IPC: 2.564 cumulative IPC: 2.566 (Simulation time: 04 hr 38 min 09 sec)
*** Reached end of trace: (4, "traces/canneal_big4.champsimtrace")
*** Reached end of trace: (14, "traces/canneal_big4.champsimtrace")
*** Reached end of trace: (9, "traces/canneal_big4.champsimtrace")
*** Reached end of trace: (3, "traces/canneal_big3.champsimtrace")
*** Reached end of trace: (8, "traces/canneal_big3.champsimtrace")
*** Reached end of trace: (13, "traces/canneal_big3.champsimtrace")
*** Reached end of trace: (7, "traces/canneal_big2.champsimtrace")
*** Reached end of trace: (2, "traces/canneal_big2.champsimtrace")
*** Reached end of trace: (12, "traces/canneal_big2.champsimtrace")
*** Reached end of trace: (4, "traces/canneal_big4.champsimtrace")
*** Reached end of trace: (14, "traces/canneal_big4.champsimtrace")
Heartbeat CPU 14 instructions: 160000001 cycles: 40003232 heartbeat IPC: 4 cumulative IPC: 4 (Simulation time: 04 hr 49 min 04 sec)
Heartbeat CPU 4 instructions: 160000001 cycles: 40003232 heartbeat IPC: 4 cumulative IPC: 4 (Simulation time: 04 hr 49 min 04 sec)
*** Reached end of trace: (9, "traces/canneal_big4.champsimtrace")
*** Reached end of trace: (3, "traces/canneal_big3.champsimtrace")
*** Reached end of trace: (8, "traces/canneal_big3.champsimtrace")
*** Reached end of trace: (13, "traces/canneal_big3.champsimtrace")
Heartbeat CPU 9 instructions: 160000001 cycles: 40003428 heartbeat IPC: 4 cumulative IPC: 4 (Simulation time: 04 hr 49 min 04 sec)
Heartbeat CPU 3 instructions: 160000001 cycles: 40003453 heartbeat IPC: 4 cumulative IPC: 4 (Simulation time: 04 hr 49 min 04 sec)
Heartbeat CPU 8 instructions: 160000001 cycles: 40003456 heartbeat IPC: 4 cumulative IPC: 4 (Simulation time: 04 hr 49 min 04 sec)
Heartbeat CPU 13 instructions: 160000001 cycles: 40003460 heartbeat IPC: 4 cumulative IPC: 4 (Simulation time: 04 hr 49 min 04 sec)
*** Reached end of trace: (7, "traces/canneal_big2.champsimtrace")
*** Reached end of trace: (2, "traces/canneal_big2.champsimtrace")
*** Reached end of trace: (12, "traces/canneal_big2.champsimtrace")
Heartbeat CPU 7 instructions: 160000001 cycles: 40003600 heartbeat IPC: 4 cumulative IPC: 4 (Simulation time: 04 hr 49 min 04 sec)
Heartbeat CPU 2 instructions: 160000001 cycles: 40003607 heartbeat IPC: 4 cumulative IPC: 4 (Simulation time: 04 hr 49 min 04 sec)
Heartbeat CPU 12 instructions: 160000001 cycles: 40003614 heartbeat IPC: 4 cumulative IPC: 4 (Simulation time: 04 hr 49 min 04 sec)
*** Reached end of trace: (10, "traces/canneal_big0.champsimtrace")
*** Reached end of trace: (0, "traces/canneal_big0.champsimtrace")
*** Reached end of trace: (15, "traces/canneal_big0.champsimtrace")
*** Reached end of trace: (5, "traces/canneal_big0.champsimtrace")
*** Reached end of trace: (4, "traces/canneal_big4.champsimtrace")
*** Reached end of trace: (14, "traces/canneal_big4.champsimtrace")
*** Reached end of trace: (9, "traces/canneal_big4.champsimtrace")
*** Reached end of trace: (3, "traces/canneal_big3.champsimtrace")
*** Reached end of trace: (8, "traces/canneal_big3.champsimtrace")
*** Reached end of trace: (13, "traces/canneal_big3.champsimtrace")
*** Reached end of trace: (7, "traces/canneal_big2.champsimtrace")
*** Reached end of trace: (2, "traces/canneal_big2.champsimtrace")
*** Reached end of trace: (12, "traces/canneal_big2.champsimtrace")
*** Reached end of trace: (10, "traces/canneal_big0.champsimtrace")
*** Reached end of trace: (0, "traces/canneal_big0.champsimtrace")
*** Reached end of trace: (15, "traces/canneal_big0.champsimtrace")
Heartbeat CPU 0 instructions: 110000033 cycles: 42119672 heartbeat IPC: 2.646 cumulative IPC: 2.648 (Simulation time: 05 hr 08 min 13 sec)
Heartbeat CPU 10 instructions: 110000033 cycles: 42119672 heartbeat IPC: 2.646 cumulative IPC: 2.648 (Simulation time: 05 hr 08 min 13 sec)
Heartbeat CPU 15 instructions: 110000033 cycles: 42119673 heartbeat IPC: 2.646 cumulative IPC: 2.649 (Simulation time: 05 hr 08 min 13 sec)
*** Reached end of trace: (4, "traces/canneal_big4.champsimtrace")
*** Reached end of trace: (14, "traces/canneal_big4.champsimtrace")
Heartbeat CPU 14 instructions: 170000001 cycles: 42503232 heartbeat IPC: 4 cumulative IPC: 4 (Simulation time: 05 hr 11 min 48 sec)
Heartbeat CPU 4 instructions: 170000001 cycles: 42503232 heartbeat IPC: 4 cumulative IPC: 4 (Simulation time: 05 hr 11 min 48 sec)
*** Reached end of trace: (9, "traces/canneal_big4.champsimtrace")
*** Reached end of trace: (3, "traces/canneal_big3.champsimtrace")
*** Reached end of trace: (8, "traces/canneal_big3.champsimtrace")
*** Reached end of trace: (13, "traces/canneal_big3.champsimtrace")
Heartbeat CPU 9 instructions: 170000001 cycles: 42503428 heartbeat IPC: 4 cumulative IPC: 4 (Simulation time: 05 hr 11 min 48 sec)
Heartbeat CPU 3 instructions: 170000001 cycles: 42503453 heartbeat IPC: 4 cumulative IPC: 4 (Simulation time: 05 hr 11 min 48 sec)
Heartbeat CPU 8 instructions: 170000001 cycles: 42503456 heartbeat IPC: 4 cumulative IPC: 4 (Simulation time: 05 hr 11 min 48 sec)
Heartbeat CPU 13 instructions: 170000001 cycles: 42503460 heartbeat IPC: 4 cumulative IPC: 4 (Simulation time: 05 hr 11 min 48 sec)
*** Reached end of trace: (7, "traces/canneal_big2.champsimtrace")
*** Reached end of trace: (2, "traces/canneal_big2.champsimtrace")
*** Reached end of trace: (12, "traces/canneal_big2.champsimtrace")
Heartbeat CPU 7 instructions: 170000001 cycles: 42503600 heartbeat IPC: 4 cumulative IPC: 4 (Simulation time: 05 hr 11 min 48 sec)
Heartbeat CPU 2 instructions: 170000001 cycles: 42503607 heartbeat IPC: 4 cumulative IPC: 4 (Simulation time: 05 hr 11 min 48 sec)
Heartbeat CPU 12 instructions: 170000001 cycles: 42503614 heartbeat IPC: 4 cumulative IPC: 4 (Simulation time: 05 hr 11 min 48 sec)
*** Reached end of trace: (5, "traces/canneal_big0.champsimtrace")
Heartbeat CPU 5 instructions: 110000033 cycles: 42622658 heartbeat IPC: 2.548 cumulative IPC: 2.561 (Simulation time: 05 hr 12 min 46 sec)
*** Reached end of trace: (4, "traces/canneal_big4.champsimtrace")
*** Reached end of trace: (14, "traces/canneal_big4.champsimtrace")
*** Reached end of trace: (9, "traces/canneal_big4.champsimtrace")
*** Reached end of trace: (3, "traces/canneal_big3.champsimtrace")
*** Reached end of trace: (8, "traces/canneal_big3.champsimtrace")
*** Reached end of trace: (13, "traces/canneal_big3.champsimtrace")
*** Reached end of trace: (7, "traces/canneal_big2.champsimtrace")
*** Reached end of trace: (2, "traces/canneal_big2.champsimtrace")
*** Reached end of trace: (12, "traces/canneal_big2.champsimtrace")
*** Reached end of trace: (0, "traces/canneal_big0.champsimtrace")
*** Reached end of trace: (10, "traces/canneal_big0.champsimtrace")
*** Reached end of trace: (15, "traces/canneal_big0.champsimtrace")
*** Reached end of trace: (5, "traces/canneal_big0.champsimtrace")
*** Reached end of trace: (4, "traces/canneal_big4.champsimtrace")
*** Reached end of trace: (14, "traces/canneal_big4.champsimtrace")
Heartbeat CPU 14 instructions: 180000001 cycles: 45003232 heartbeat IPC: 4 cumulative IPC: 4 (Simulation time: 05 hr 33 min 43 sec)
Heartbeat CPU 4 instructions: 180000001 cycles: 45003232 heartbeat IPC: 4 cumulative IPC: 4 (Simulation time: 05 hr 33 min 43 sec)
*** Reached end of trace: (9, "traces/canneal_big4.champsimtrace")
*** Reached end of trace: (3, "traces/canneal_big3.champsimtrace")
*** Reached end of trace: (8, "traces/canneal_big3.champsimtrace")
*** Reached end of trace: (13, "traces/canneal_big3.champsimtrace")
Heartbeat CPU 9 instructions: 180000001 cycles: 45003428 heartbeat IPC: 4 cumulative IPC: 4 (Simulation time: 05 hr 33 min 43 sec)
Heartbeat CPU 3 instructions: 180000001 cycles: 45003453 heartbeat IPC: 4 cumulative IPC: 4 (Simulation time: 05 hr 33 min 43 sec)
Heartbeat CPU 8 instructions: 180000001 cycles: 45003456 heartbeat IPC: 4 cumulative IPC: 4 (Simulation time: 05 hr 33 min 43 sec)
Heartbeat CPU 13 instructions: 180000001 cycles: 45003460 heartbeat IPC: 4 cumulative IPC: 4 (Simulation time: 05 hr 33 min 43 sec)
*** Reached end of trace: (7, "traces/canneal_big2.champsimtrace")
*** Reached end of trace: (2, "traces/canneal_big2.champsimtrace")
*** Reached end of trace: (12, "traces/canneal_big2.champsimtrace")
Heartbeat CPU 7 instructions: 180000001 cycles: 45003600 heartbeat IPC: 4 cumulative IPC: 4 (Simulation time: 05 hr 33 min 43 sec)
Heartbeat CPU 2 instructions: 180000001 cycles: 45003607 heartbeat IPC: 4 cumulative IPC: 4 (Simulation time: 05 hr 33 min 43 sec)
Heartbeat CPU 12 instructions: 180000001 cycles: 45003614 heartbeat IPC: 4 cumulative IPC: 4 (Simulation time: 05 hr 33 min 43 sec)
*** Reached end of trace: (10, "traces/canneal_big0.champsimtrace")
*** Reached end of trace: (0, "traces/canneal_big0.champsimtrace")
*** Reached end of trace: (15, "traces/canneal_big0.champsimtrace")
Heartbeat CPU 0 instructions: 120000036 cycles: 45898409 heartbeat IPC: 2.646 cumulative IPC: 2.648 (Simulation time: 05 hr 41 min 48 sec)
Heartbeat CPU 10 instructions: 120000036 cycles: 45898409 heartbeat IPC: 2.646 cumulative IPC: 2.648 (Simulation time: 05 hr 41 min 48 sec)
Heartbeat CPU 15 instructions: 120000036 cycles: 45898410 heartbeat IPC: 2.646 cumulative IPC: 2.648 (Simulation time: 05 hr 41 min 48 sec)
*** Reached end of trace: (4, "traces/canneal_big4.champsimtrace")
*** Reached end of trace: (14, "traces/canneal_big4.champsimtrace")
*** Reached end of trace: (9, "traces/canneal_big4.champsimtrace")
*** Reached end of trace: (3, "traces/canneal_big3.champsimtrace")
*** Reached end of trace: (8, "traces/canneal_big3.champsimtrace")
*** Reached end of trace: (13, "traces/canneal_big3.champsimtrace")
*** Reached end of trace: (7, "traces/canneal_big2.champsimtrace")
*** Reached end of trace: (2, "traces/canneal_big2.champsimtrace")
*** Reached end of trace: (12, "traces/canneal_big2.champsimtrace")
*** Reached end of trace: (5, "traces/canneal_big0.champsimtrace")
Heartbeat CPU 5 instructions: 120000036 cycles: 46548404 heartbeat IPC: 2.547 cumulative IPC: 2.558 (Simulation time: 05 hr 47 min 44 sec)
*** Reached end of trace: (11, "traces/canneal_big1.champsimtrace")
*** Reached end of trace: (1, "traces/canneal_big1.champsimtrace")
*** Reached end of trace: (4, "traces/canneal_big4.champsimtrace")
*** Reached end of trace: (14, "traces/canneal_big4.champsimtrace")
Heartbeat CPU 14 instructions: 190000001 cycles: 47503232 heartbeat IPC: 4 cumulative IPC: 4 (Simulation time: 05 hr 56 min 15 sec)
Heartbeat CPU 4 instructions: 190000001 cycles: 47503232 heartbeat IPC: 4 cumulative IPC: 4 (Simulation time: 05 hr 56 min 15 sec)
*** Reached end of trace: (9, "traces/canneal_big4.champsimtrace")
*** Reached end of trace: (3, "traces/canneal_big3.champsimtrace")
*** Reached end of trace: (8, "traces/canneal_big3.champsimtrace")
*** Reached end of trace: (13, "traces/canneal_big3.champsimtrace")
Heartbeat CPU 9 instructions: 190000001 cycles: 47503428 heartbeat IPC: 4 cumulative IPC: 4 (Simulation time: 05 hr 56 min 16 sec)
Heartbeat CPU 3 instructions: 190000001 cycles: 47503453 heartbeat IPC: 4 cumulative IPC: 4 (Simulation time: 05 hr 56 min 16 sec)
Heartbeat CPU 8 instructions: 190000001 cycles: 47503456 heartbeat IPC: 4 cumulative IPC: 4 (Simulation time: 05 hr 56 min 16 sec)
Heartbeat CPU 13 instructions: 190000001 cycles: 47503460 heartbeat IPC: 4 cumulative IPC: 4 (Simulation time: 05 hr 56 min 16 sec)
*** Reached end of trace: (7, "traces/canneal_big2.champsimtrace")
*** Reached end of trace: (2, "traces/canneal_big2.champsimtrace")
*** Reached end of trace: (12, "traces/canneal_big2.champsimtrace")
Heartbeat CPU 7 instructions: 190000001 cycles: 47503600 heartbeat IPC: 4 cumulative IPC: 4 (Simulation time: 05 hr 56 min 16 sec)
Heartbeat CPU 2 instructions: 190000001 cycles: 47503607 heartbeat IPC: 4 cumulative IPC: 4 (Simulation time: 05 hr 56 min 16 sec)
Heartbeat CPU 12 instructions: 190000001 cycles: 47503614 heartbeat IPC: 4 cumulative IPC: 4 (Simulation time: 05 hr 56 min 16 sec)
*** Reached end of trace: (0, "traces/canneal_big0.champsimtrace")
*** Reached end of trace: (10, "traces/canneal_big0.champsimtrace")
*** Reached end of trace: (15, "traces/canneal_big0.champsimtrace")
*** Reached end of trace: (6, "traces/canneal_big1.champsimtrace")
*** Reached end of trace: (5, "traces/canneal_big0.champsimtrace")
*** Reached end of trace: (4, "traces/canneal_big4.champsimtrace")
*** Reached end of trace: (14, "traces/canneal_big4.champsimtrace")
*** Reached end of trace: (9, "traces/canneal_big4.champsimtrace")
*** Reached end of trace: (3, "traces/canneal_big3.champsimtrace")
*** Reached end of trace: (8, "traces/canneal_big3.champsimtrace")
*** Reached end of trace: (13, "traces/canneal_big3.champsimtrace")
*** Reached end of trace: (7, "traces/canneal_big2.champsimtrace")
*** Reached end of trace: (2, "traces/canneal_big2.champsimtrace")
*** Reached end of trace: (12, "traces/canneal_big2.champsimtrace")
*** Reached end of trace: (10, "traces/canneal_big0.champsimtrace")
*** Reached end of trace: (0, "traces/canneal_big0.champsimtrace")
*** Reached end of trace: (15, "traces/canneal_big0.champsimtrace")
Heartbeat CPU 0 instructions: 130000039 cycles: 49678330 heartbeat IPC: 2.646 cumulative IPC: 2.648 (Simulation time: 06 hr 15 min 19 sec)
Heartbeat CPU 10 instructions: 130000039 cycles: 49678330 heartbeat IPC: 2.646 cumulative IPC: 2.647 (Simulation time: 06 hr 15 min 19 sec)
Heartbeat CPU 15 instructions: 130000039 cycles: 49678331 heartbeat IPC: 2.646 cumulative IPC: 2.648 (Simulation time: 06 hr 15 min 19 sec)
*** Reached end of trace: (4, "traces/canneal_big4.champsimtrace")
*** Reached end of trace: (14, "traces/canneal_big4.champsimtrace")
Heartbeat CPU 14 instructions: 200000001 cycles: 50003232 heartbeat IPC: 4 cumulative IPC: 4 (Simulation time: 06 hr 18 min 21 sec)
Heartbeat CPU 4 instructions: 200000001 cycles: 50003232 heartbeat IPC: 4 cumulative IPC: 4 (Simulation time: 06 hr 18 min 21 sec)
*** Reached end of trace: (9, "traces/canneal_big4.champsimtrace")
*** Reached end of trace: (3, "traces/canneal_big3.champsimtrace")
*** Reached end of trace: (8, "traces/canneal_big3.champsimtrace")
*** Reached end of trace: (13, "traces/canneal_big3.champsimtrace")
Heartbeat CPU 9 instructions: 200000001 cycles: 50003428 heartbeat IPC: 4 cumulative IPC: 4 (Simulation time: 06 hr 18 min 21 sec)
Heartbeat CPU 3 instructions: 200000001 cycles: 50003453 heartbeat IPC: 4 cumulative IPC: 4 (Simulation time: 06 hr 18 min 21 sec)
Heartbeat CPU 8 instructions: 200000001 cycles: 50003456 heartbeat IPC: 4 cumulative IPC: 4 (Simulation time: 06 hr 18 min 21 sec)
Heartbeat CPU 13 instructions: 200000001 cycles: 50003460 heartbeat IPC: 4 cumulative IPC: 4 (Simulation time: 06 hr 18 min 21 sec)
*** Reached end of trace: (7, "traces/canneal_big2.champsimtrace")
*** Reached end of trace: (2, "traces/canneal_big2.champsimtrace")
*** Reached end of trace: (12, "traces/canneal_big2.champsimtrace")
Heartbeat CPU 7 instructions: 200000001 cycles: 50003600 heartbeat IPC: 4 cumulative IPC: 4 (Simulation time: 06 hr 18 min 21 sec)
Heartbeat CPU 2 instructions: 200000001 cycles: 50003607 heartbeat IPC: 4 cumulative IPC: 4 (Simulation time: 06 hr 18 min 21 sec)
Heartbeat CPU 12 instructions: 200000001 cycles: 50003614 heartbeat IPC: 4 cumulative IPC: 4 (Simulation time: 06 hr 18 min 21 sec)
*** Reached end of trace: (5, "traces/canneal_big0.champsimtrace")
Heartbeat CPU 5 instructions: 130000039 cycles: 50496000 heartbeat IPC: 2.533 cumulative IPC: 2.553 (Simulation time: 06 hr 22 min 31 sec)
*** Reached end of trace: (4, "traces/canneal_big4.champsimtrace")
*** Reached end of trace: (14, "traces/canneal_big4.champsimtrace")
*** Reached end of trace: (9, "traces/canneal_big4.champsimtrace")
*** Reached end of trace: (3, "traces/canneal_big3.champsimtrace")
*** Reached end of trace: (8, "traces/canneal_big3.champsimtrace")
*** Reached end of trace: (13, "traces/canneal_big3.champsimtrace")
*** Reached end of trace: (7, "traces/canneal_big2.champsimtrace")
*** Reached end of trace: (2, "traces/canneal_big2.champsimtrace")
*** Reached end of trace: (12, "traces/canneal_big2.champsimtrace")
*** Reached end of trace: (10, "traces/canneal_big0.champsimtrace")
*** Reached end of trace: (0, "traces/canneal_big0.champsimtrace")
*** Reached end of trace: (15, "traces/canneal_big0.champsimtrace")
*** Reached end of trace: (5, "traces/canneal_big0.champsimtrace")
*** Reached end of trace: (4, "traces/canneal_big4.champsimtrace")
*** Reached end of trace: (14, "traces/canneal_big4.champsimtrace")
Heartbeat CPU 14 instructions: 210000001 cycles: 52503232 heartbeat IPC: 4 cumulative IPC: 4 (Simulation time: 06 hr 40 min 11 sec)
Heartbeat CPU 4 instructions: 210000001 cycles: 52503232 heartbeat IPC: 4 cumulative IPC: 4 (Simulation time: 06 hr 40 min 11 sec)
*** Reached end of trace: (9, "traces/canneal_big4.champsimtrace")
*** Reached end of trace: (3, "traces/canneal_big3.champsimtrace")
*** Reached end of trace: (8, "traces/canneal_big3.champsimtrace")
*** Reached end of trace: (13, "traces/canneal_big3.champsimtrace")
Heartbeat CPU 9 instructions: 210000001 cycles: 52503428 heartbeat IPC: 4 cumulative IPC: 4 (Simulation time: 06 hr 40 min 11 sec)
Heartbeat CPU 3 instructions: 210000001 cycles: 52503453 heartbeat IPC: 4 cumulative IPC: 4 (Simulation time: 06 hr 40 min 11 sec)
Heartbeat CPU 8 instructions: 210000001 cycles: 52503456 heartbeat IPC: 4 cumulative IPC: 4 (Simulation time: 06 hr 40 min 11 sec)
Heartbeat CPU 13 instructions: 210000001 cycles: 52503460 heartbeat IPC: 4 cumulative IPC: 4 (Simulation time: 06 hr 40 min 11 sec)
*** Reached end of trace: (7, "traces/canneal_big2.champsimtrace")
*** Reached end of trace: (2, "traces/canneal_big2.champsimtrace")
*** Reached end of trace: (12, "traces/canneal_big2.champsimtrace")
Heartbeat CPU 7 instructions: 210000001 cycles: 52503600 heartbeat IPC: 4 cumulative IPC: 4 (Simulation time: 06 hr 40 min 11 sec)
Heartbeat CPU 2 instructions: 210000001 cycles: 52503607 heartbeat IPC: 4 cumulative IPC: 4 (Simulation time: 06 hr 40 min 11 sec)
Heartbeat CPU 12 instructions: 210000001 cycles: 52503614 heartbeat IPC: 4 cumulative IPC: 4 (Simulation time: 06 hr 40 min 11 sec)
*** Reached end of trace: (10, "traces/canneal_big0.champsimtrace")
*** Reached end of trace: (0, "traces/canneal_big0.champsimtrace")
*** Reached end of trace: (15, "traces/canneal_big0.champsimtrace")
Heartbeat CPU 0 instructions: 140000042 cycles: 53456813 heartbeat IPC: 2.647 cumulative IPC: 2.647 (Simulation time: 06 hr 48 min 31 sec)
Heartbeat CPU 10 instructions: 140000042 cycles: 53456813 heartbeat IPC: 2.647 cumulative IPC: 2.647 (Simulation time: 06 hr 48 min 31 sec)
Heartbeat CPU 15 instructions: 140000042 cycles: 53456814 heartbeat IPC: 2.647 cumulative IPC: 2.647 (Simulation time: 06 hr 48 min 31 sec)
*** Reached end of trace: (4, "traces/canneal_big4.champsimtrace")
*** Reached end of trace: (14, "traces/canneal_big4.champsimtrace")
*** Reached end of trace: (9, "traces/canneal_big4.champsimtrace")
*** Reached end of trace: (3, "traces/canneal_big3.champsimtrace")
*** Reached end of trace: (8, "traces/canneal_big3.champsimtrace")
*** Reached end of trace: (13, "traces/canneal_big3.champsimtrace")
*** Reached end of trace: (7, "traces/canneal_big2.champsimtrace")
*** Reached end of trace: (2, "traces/canneal_big2.champsimtrace")
*** Reached end of trace: (12, "traces/canneal_big2.champsimtrace")
*** Reached end of trace: (5, "traces/canneal_big0.champsimtrace")
Heartbeat CPU 5 instructions: 140000042 cycles: 54444646 heartbeat IPC: 2.533 cumulative IPC: 2.55 (Simulation time: 06 hr 56 min 27 sec)
Simulation finished CPU 9 instructions: 100000000 cycles: 25000000 cumulative IPC: 4 (Simulation time: 07 hr 01 min 18 sec)
Simulation finished CPU 8 instructions: 100000000 cycles: 25000000 cumulative IPC: 4 (Simulation time: 07 hr 01 min 18 sec)
Simulation finished CPU 7 instructions: 100000000 cycles: 25000000 cumulative IPC: 4 (Simulation time: 07 hr 01 min 18 sec)
Simulation finished CPU 4 instructions: 100000000 cycles: 25000000 cumulative IPC: 4 (Simulation time: 07 hr 01 min 18 sec)
Simulation finished CPU 3 instructions: 100000000 cycles: 25000000 cumulative IPC: 4 (Simulation time: 07 hr 01 min 18 sec)
Simulation finished CPU 2 instructions: 100000000 cycles: 25000000 cumulative IPC: 4 (Simulation time: 07 hr 01 min 18 sec)
Simulation finished CPU 14 instructions: 100000000 cycles: 25000000 cumulative IPC: 4 (Simulation time: 07 hr 01 min 18 sec)
Simulation finished CPU 13 instructions: 100000000 cycles: 25000000 cumulative IPC: 4 (Simulation time: 07 hr 01 min 18 sec)
Simulation finished CPU 12 instructions: 100000000 cycles: 25000000 cumulative IPC: 4 (Simulation time: 07 hr 01 min 18 sec)
*** Reached end of trace: (4, "traces/canneal_big4.champsimtrace")
*** Reached end of trace: (14, "traces/canneal_big4.champsimtrace")
Heartbeat CPU 14 instructions: 220000001 cycles: 55003232 heartbeat IPC: 4 cumulative IPC: 4 (Simulation time: 07 hr 01 min 21 sec)
Heartbeat CPU 4 instructions: 220000001 cycles: 55003232 heartbeat IPC: 4 cumulative IPC: 4 (Simulation time: 07 hr 01 min 21 sec)
*** Reached end of trace: (9, "traces/canneal_big4.champsimtrace")
*** Reached end of trace: (3, "traces/canneal_big3.champsimtrace")
*** Reached end of trace: (8, "traces/canneal_big3.champsimtrace")
*** Reached end of trace: (13, "traces/canneal_big3.champsimtrace")
Heartbeat CPU 9 instructions: 220000001 cycles: 55003428 heartbeat IPC: 4 cumulative IPC: 4 (Simulation time: 07 hr 01 min 21 sec)
Heartbeat CPU 3 instructions: 220000001 cycles: 55003453 heartbeat IPC: 4 cumulative IPC: 4 (Simulation time: 07 hr 01 min 21 sec)
Heartbeat CPU 8 instructions: 220000001 cycles: 55003456 heartbeat IPC: 4 cumulative IPC: 4 (Simulation time: 07 hr 01 min 21 sec)
Heartbeat CPU 13 instructions: 220000001 cycles: 55003460 heartbeat IPC: 4 cumulative IPC: 4 (Simulation time: 07 hr 01 min 21 sec)
*** Reached end of trace: (7, "traces/canneal_big2.champsimtrace")
*** Reached end of trace: (2, "traces/canneal_big2.champsimtrace")
*** Reached end of trace: (12, "traces/canneal_big2.champsimtrace")
Heartbeat CPU 7 instructions: 220000001 cycles: 55003600 heartbeat IPC: 4 cumulative IPC: 4 (Simulation time: 07 hr 01 min 21 sec)
Heartbeat CPU 2 instructions: 220000001 cycles: 55003607 heartbeat IPC: 4 cumulative IPC: 4 (Simulation time: 07 hr 01 min 21 sec)
Heartbeat CPU 12 instructions: 220000001 cycles: 55003614 heartbeat IPC: 4 cumulative IPC: 4 (Simulation time: 07 hr 01 min 21 sec)
*** Reached end of trace: (10, "traces/canneal_big0.champsimtrace")
*** Reached end of trace: (0, "traces/canneal_big0.champsimtrace")
*** Reached end of trace: (15, "traces/canneal_big0.champsimtrace")
*** Reached end of trace: (4, "traces/canneal_big4.champsimtrace")
*** Reached end of trace: (14, "traces/canneal_big4.champsimtrace")
*** Reached end of trace: (9, "traces/canneal_big4.champsimtrace")
*** Reached end of trace: (3, "traces/canneal_big3.champsimtrace")
*** Reached end of trace: (8, "traces/canneal_big3.champsimtrace")
*** Reached end of trace: (13, "traces/canneal_big3.champsimtrace")
*** Reached end of trace: (7, "traces/canneal_big2.champsimtrace")
*** Reached end of trace: (2, "traces/canneal_big2.champsimtrace")
*** Reached end of trace: (12, "traces/canneal_big2.champsimtrace")
*** Reached end of trace: (5, "traces/canneal_big0.champsimtrace")
*** Reached end of trace: (10, "traces/canneal_big0.champsimtrace")
*** Reached end of trace: (0, "traces/canneal_big0.champsimtrace")
*** Reached end of trace: (15, "traces/canneal_big0.champsimtrace")
Heartbeat CPU 0 instructions: 150000045 cycles: 57231657 heartbeat IPC: 2.649 cumulative IPC: 2.648 (Simulation time: 07 hr 21 min 31 sec)
Heartbeat CPU 10 instructions: 150000045 cycles: 57231657 heartbeat IPC: 2.649 cumulative IPC: 2.648 (Simulation time: 07 hr 21 min 31 sec)
Heartbeat CPU 15 instructions: 150000045 cycles: 57231658 heartbeat IPC: 2.649 cumulative IPC: 2.648 (Simulation time: 07 hr 21 min 31 sec)
*** Reached end of trace: (4, "traces/canneal_big4.champsimtrace")
*** Reached end of trace: (14, "traces/canneal_big4.champsimtrace")
Heartbeat CPU 14 instructions: 230000001 cycles: 57503232 heartbeat IPC: 4 cumulative IPC: 4 (Simulation time: 07 hr 24 min 13 sec)
Heartbeat CPU 4 instructions: 230000001 cycles: 57503232 heartbeat IPC: 4 cumulative IPC: 4 (Simulation time: 07 hr 24 min 13 sec)
*** Reached end of trace: (9, "traces/canneal_big4.champsimtrace")
*** Reached end of trace: (3, "traces/canneal_big3.champsimtrace")
[...]
*** Reached end of trace: (7, "traces/canneal_big2.champsimtrace")
*** Reached end of trace: (2, "traces/canneal_big2.champsimtrace")
Heartbeat CPU 3 instructions: 710000001 cycles: 177503453 heartbeat IPC: 4 cumulative IPC: 4 (Simulation time: 23 hr 12 min 57 sec)
Heartbeat CPU 8 instructions: 710000001 cycles: 177503456 heartbeat IPC: 4 cumulative IPC: 4 (Simulation time: 23 hr 12 min 57 sec)
*** Reached end of trace: (12, "traces/canneal_big2.champsimtrace")
Heartbeat CPU 13 instructions: 710000001 cycles: 177503460 heartbeat IPC: 4 cumulative IPC: 4 (Simulation time: 23 hr 12 min 57 sec)
Heartbeat CPU 7 instructions: 710000001 cycles: 177503600 heartbeat IPC: 4 cumulative IPC: 4 (Simulation time: 23 hr 12 min 57 sec)
Heartbeat CPU 2 instructions: 710000001 cycles: 177503607 heartbeat IPC: 4 cumulative IPC: 4 (Simulation time: 23 hr 12 min 57 sec)
Heartbeat CPU 12 instructions: 710000001 cycles: 177503614 heartbeat IPC: 4 cumulative IPC: 4 (Simulation time: 23 hr 12 min 57 sec)
*** Reached end of trace: (4, "traces/canneal_big4.champsimtrace")
*** Reached end of trace: (14, "traces/canneal_big4.champsimtrace")
*** Reached end of trace: (9, "traces/canneal_big4.champsimtrace")
*** Reached end of trace: (3, "traces/canneal_big3.champsimtrace")
*** Reached end of trace: (8, "traces/canneal_big3.champsimtrace")
*** Reached end of trace: (13, "traces/canneal_big3.champsimtrace")
*** Reached end of trace: (7, "traces/canneal_big2.champsimtrace")
*** Reached end of trace: (2, "traces/canneal_big2.champsimtrace")
*** Reached end of trace: (12, "traces/canneal_big2.champsimtrace")
*** Reached end of trace: (10, "traces/canneal_big0.champsimtrace")
*** Reached end of trace: (0, "traces/canneal_big0.champsimtrace")
*** Reached end of trace: (15, "traces/canneal_big0.champsimtrace")
*** Reached end of trace: (5, "traces/canneal_big0.champsimtrace")
Heartbeat CPU 5 instructions: 460000138 cycles: 179298398 heartbeat IPC: 2.579 cumulative IPC: 2.561 (Simulation time: 23 hr 28 min 59 sec)
*** Reached end of trace: (4, "traces/canneal_big4.champsimtrace")
*** Reached end of trace: (14, "traces/canneal_big4.champsimtrace")
Heartbeat CPU 14 instructions: 720000001 cycles: 180003232 heartbeat IPC: 4 cumulative IPC: 4 (Simulation time: 23 hr 35 min 08 sec)
Heartbeat CPU 4 instructions: 720000001 cycles: 180003232 heartbeat IPC: 4 cumulative IPC: 4 (Simulation time: 23 hr 35 min 08 sec)
*** Reached end of trace: (9, "traces/canneal_big4.champsimtrace")
*** Reached end of trace: (3, "traces/canneal_big3.champsimtrace")
*** Reached end of trace: (8, "traces/canneal_big3.champsimtrace")
*** Reached end of trace: (13, "traces/canneal_big3.champsimtrace")
Heartbeat CPU 9 instructions: 720000001 cycles: 180003428 heartbeat IPC: 4 cumulative IPC: 4 (Simulation time: 23 hr 35 min 08 sec)
*** Reached end of trace: (7, "traces/canneal_big2.champsimtrace")
*** Reached end of trace: (2, "traces/canneal_big2.champsimtrace")
Heartbeat CPU 3 instructions: 720000001 cycles: 180003453 heartbeat IPC: 4 cumulative IPC: 4 (Simulation time: 23 hr 35 min 08 sec)
*** Reached end of trace: (12, "traces/canneal_big2.champsimtrace")
Heartbeat CPU 8 instructions: 720000001 cycles: 180003456 heartbeat IPC: 4 cumulative IPC: 4 (Simulation time: 23 hr 35 min 08 sec)
Heartbeat CPU 13 instructions: 720000001 cycles: 180003460 heartbeat IPC: 4 cumulative IPC: 4 (Simulation time: 23 hr 35 min 08 sec)
Heartbeat CPU 7 instructions: 720000001 cycles: 180003600 heartbeat IPC: 4 cumulative IPC: 4 (Simulation time: 23 hr 35 min 09 sec)
Heartbeat CPU 2 instructions: 720000001 cycles: 180003607 heartbeat IPC: 4 cumulative IPC: 4 (Simulation time: 23 hr 35 min 09 sec)
Heartbeat CPU 12 instructions: 720000001 cycles: 180003614 heartbeat IPC: 4 cumulative IPC: 4 (Simulation time: 23 hr 35 min 09 sec)
*** Reached end of trace: (10, "traces/canneal_big0.champsimtrace")
*** Reached end of trace: (0, "traces/canneal_big0.champsimtrace")
*** Reached end of trace: (15, "traces/canneal_big0.champsimtrace")
Heartbeat CPU 0 instructions: 480000141 cycles: 180720842 heartbeat IPC: 2.668 cumulative IPC: 2.668 (Simulation time: 23 hr 41 min 27 sec)
Heartbeat CPU 10 instructions: 480000141 cycles: 180720842 heartbeat IPC: 2.668 cumulative IPC: 2.668 (Simulation time: 23 hr 41 min 27 sec)
Heartbeat CPU 15 instructions: 480000141 cycles: 180720843 heartbeat IPC: 2.668 cumulative IPC: 2.668 (Simulation time: 23 hr 41 min 27 sec)
*** Reached end of trace: (5, "traces/canneal_big0.champsimtrace")
*** Reached end of trace: (4, "traces/canneal_big4.champsimtrace")
*** Reached end of trace: (14, "traces/canneal_big4.champsimtrace")
*** Reached end of trace: (9, "traces/canneal_big4.champsimtrace")
*** Reached end of trace: (3, "traces/canneal_big3.champsimtrace")
*** Reached end of trace: (8, "traces/canneal_big3.champsimtrace")
*** Reached end of trace: (13, "traces/canneal_big3.champsimtrace")
*** Reached end of trace: (7, "traces/canneal_big2.champsimtrace")
*** Reached end of trace: (2, "traces/canneal_big2.champsimtrace")
*** Reached end of trace: (12, "traces/canneal_big2.champsimtrace")
*** Reached end of trace: (11, "traces/canneal_big1.champsimtrace")
*** Reached end of trace: (1, "traces/canneal_big1.champsimtrace")
*** Reached end of trace: (4, "traces/canneal_big4.champsimtrace")
*** Reached end of trace: (14, "traces/canneal_big4.champsimtrace")
Heartbeat CPU 14 instructions: 730000001 cycles: 182503232 heartbeat IPC: 4 cumulative IPC: 4 (Simulation time: 23 hr 57 min 37 sec)
Heartbeat CPU 4 instructions: 730000001 cycles: 182503232 heartbeat IPC: 4 cumulative IPC: 4 (Simulation time: 23 hr 57 min 37 sec)
*** Reached end of trace: (9, "traces/canneal_big4.champsimtrace")
*** Reached end of trace: (3, "traces/canneal_big3.champsimtrace")
*** Reached end of trace: (8, "traces/canneal_big3.champsimtrace")
*** Reached end of trace: (13, "traces/canneal_big3.champsimtrace")
Heartbeat CPU 9 instructions: 730000001 cycles: 182503428 heartbeat IPC: 4 cumulative IPC: 4 (Simulation time: 23 hr 57 min 37 sec)
*** Reached end of trace: (7, "traces/canneal_big2.champsimtrace")
*** Reached end of trace: (2, "traces/canneal_big2.champsimtrace")
Heartbeat CPU 3 instructions: 730000001 cycles: 182503453 heartbeat IPC: 4 cumulative IPC: 4 (Simulation time: 23 hr 57 min 37 sec)
*** Reached end of trace: (12, "traces/canneal_big2.champsimtrace")
Heartbeat CPU 8 instructions: 730000001 cycles: 182503456 heartbeat IPC: 4 cumulative IPC: 4 (Simulation time: 23 hr 57 min 37 sec)
Heartbeat CPU 13 instructions: 730000001 cycles: 182503460 heartbeat IPC: 4 cumulative IPC: 4 (Simulation time: 23 hr 57 min 37 sec)
Heartbeat CPU 7 instructions: 730000001 cycles: 182503600 heartbeat IPC: 4 cumulative IPC: 4 (Simulation time: 23 hr 57 min 37 sec)
Heartbeat CPU 2 instructions: 730000001 cycles: 182503607 heartbeat IPC: 4 cumulative IPC: 4 (Simulation time: 23 hr 57 min 37 sec)
Heartbeat CPU 12 instructions: 730000001 cycles: 182503614 heartbeat IPC: 4 cumulative IPC: 4 (Simulation time: 23 hr 57 min 38 sec)
*** Reached end of trace: (10, "traces/canneal_big0.champsimtrace")
*** Reached end of trace: (0, "traces/canneal_big0.champsimtrace")
*** Reached end of trace: (15, "traces/canneal_big0.champsimtrace")
*** Reached end of trace: (5, "traces/canneal_big0.champsimtrace")
Heartbeat CPU 5 instructions: 470000141 cycles: 183195434 heartbeat IPC: 2.566 cumulative IPC: 2.561 (Simulation time: 00 hr 04 min 06 sec)
*** Reached end of trace: (4, "traces/canneal_big4.champsimtrace")
*** Reached end of trace: (14, "traces/canneal_big4.champsimtrace")
*** Reached end of trace: (9, "traces/canneal_big4.champsimtrace")
*** Reached end of trace: (3, "traces/canneal_big3.champsimtrace")
*** Reached end of trace: (8, "traces/canneal_big3.champsimtrace")
*** Reached end of trace: (13, "traces/canneal_big3.champsimtrace")
*** Reached end of trace: (7, "traces/canneal_big2.champsimtrace")
*** Reached end of trace: (2, "traces/canneal_big2.champsimtrace")
*** Reached end of trace: (12, "traces/canneal_big2.champsimtrace")
*** Reached end of trace: (10, "traces/canneal_big0.champsimtrace")
*** Reached end of trace: (0, "traces/canneal_big0.champsimtrace")
*** Reached end of trace: (15, "traces/canneal_big0.champsimtrace")
Heartbeat CPU 0 instructions: 490000144 cycles: 184473424 heartbeat IPC: 2.665 cumulative IPC: 2.668 (Simulation time: 00 hr 15 min 35 sec)
Heartbeat CPU 10 instructions: 490000144 cycles: 184473424 heartbeat IPC: 2.665 cumulative IPC: 2.668 (Simulation time: 00 hr 15 min 35 sec)
Heartbeat CPU 15 instructions: 490000144 cycles: 184473425 heartbeat IPC: 2.665 cumulative IPC: 2.668 (Simulation time: 00 hr 15 min 35 sec)
*** Reached end of trace: (4, "traces/canneal_big4.champsimtrace")
*** Reached end of trace: (14, "traces/canneal_big4.champsimtrace")
Heartbeat CPU 14 instructions: 740000001 cycles: 185003232 heartbeat IPC: 4 cumulative IPC: 4 (Simulation time: 00 hr 20 min 14 sec)
Heartbeat CPU 4 instructions: 740000001 cycles: 185003232 heartbeat IPC: 4 cumulative IPC: 4 (Simulation time: 00 hr 20 min 14 sec)
*** Reached end of trace: (9, "traces/canneal_big4.champsimtrace")
*** Reached end of trace: (3, "traces/canneal_big3.champsimtrace")
*** Reached end of trace: (8, "traces/canneal_big3.champsimtrace")
*** Reached end of trace: (13, "traces/canneal_big3.champsimtrace")
Heartbeat CPU 9 instructions: 740000001 cycles: 185003428 heartbeat IPC: 4 cumulative IPC: 4 (Simulation time: 00 hr 20 min 14 sec)
*** Reached end of trace: (7, "traces/canneal_big2.champsimtrace")
*** Reached end of trace: (2, "traces/canneal_big2.champsimtrace")
Heartbeat CPU 3 instructions: 740000001 cycles: 185003453 heartbeat IPC: 4 cumulative IPC: 4 (Simulation time: 00 hr 20 min 14 sec)
*** Reached end of trace: (12, "traces/canneal_big2.champsimtrace")
Heartbeat CPU 8 instructions: 740000001 cycles: 185003456 heartbeat IPC: 4 cumulative IPC: 4 (Simulation time: 00 hr 20 min 14 sec)
Heartbeat CPU 13 instructions: 740000001 cycles: 185003460 heartbeat IPC: 4 cumulative IPC: 4 (Simulation time: 00 hr 20 min 14 sec)
Heartbeat CPU 7 instructions: 740000001 cycles: 185003600 heartbeat IPC: 4 cumulative IPC: 4 (Simulation time: 00 hr 20 min 14 sec)
Heartbeat CPU 2 instructions: 740000001 cycles: 185003607 heartbeat IPC: 4 cumulative IPC: 4 (Simulation time: 00 hr 20 min 14 sec)
Heartbeat CPU 12 instructions: 740000001 cycles: 185003614 heartbeat IPC: 4 cumulative IPC: 4 (Simulation time: 00 hr 20 min 14 sec)
*** Reached end of trace: (5, "traces/canneal_big0.champsimtrace")
*** Reached end of trace: (4, "traces/canneal_big4.champsimtrace")
*** Reached end of trace: (14, "traces/canneal_big4.champsimtrace")
*** Reached end of trace: (9, "traces/canneal_big4.champsimtrace")
*** Reached end of trace: (3, "traces/canneal_big3.champsimtrace")
*** Reached end of trace: (8, "traces/canneal_big3.champsimtrace")
*** Reached end of trace: (13, "traces/canneal_big3.champsimtrace")
*** Reached end of trace: (7, "traces/canneal_big2.champsimtrace")
*** Reached end of trace: (2, "traces/canneal_big2.champsimtrace")
*** Reached end of trace: (12, "traces/canneal_big2.champsimtrace")
*** Reached end of trace: (10, "traces/canneal_big0.champsimtrace")
*** Reached end of trace: (0, "traces/canneal_big0.champsimtrace")
*** Reached end of trace: (15, "traces/canneal_big0.champsimtrace")
*** Reached end of trace: (5, "traces/canneal_big0.champsimtrace")
Heartbeat CPU 5 instructions: 480000141 cycles: 187112165 heartbeat IPC: 2.553 cumulative IPC: 2.561 (Simulation time: 00 hr 37 min 44 sec)
*** Reached end of trace: (4, "traces/canneal_big4.champsimtrace")
*** Reached end of trace: (14, "traces/canneal_big4.champsimtrace")
Heartbeat CPU 14 instructions: 750000001 cycles: 187503232 heartbeat IPC: 4 cumulative IPC: 4 (Simulation time: 00 hr 40 min 38 sec)
Heartbeat CPU 4 instructions: 750000001 cycles: 187503232 heartbeat IPC: 4 cumulative IPC: 4 (Simulation time: 00 hr 40 min 38 sec)
*** Reached end of trace: (9, "traces/canneal_big4.champsimtrace")
*** Reached end of trace: (3, "traces/canneal_big3.champsimtrace")
*** Reached end of trace: (8, "traces/canneal_big3.champsimtrace")
*** Reached end of trace: (13, "traces/canneal_big3.champsimtrace")
Heartbeat CPU 9 instructions: 750000001 cycles: 187503428 heartbeat IPC: 4 cumulative IPC: 4 (Simulation time: 00 hr 40 min 38 sec)
*** Reached end of trace: (7, "traces/canneal_big2.champsimtrace")
*** Reached end of trace: (2, "traces/canneal_big2.champsimtrace")
Heartbeat CPU 3 instructions: 750000001 cycles: 187503453 heartbeat IPC: 4 cumulative IPC: 4 (Simulation time: 00 hr 40 min 38 sec)
*** Reached end of trace: (12, "traces/canneal_big2.champsimtrace")
Heartbeat CPU 8 instructions: 750000001 cycles: 187503456 heartbeat IPC: 4 cumulative IPC: 4 (Simulation time: 00 hr 40 min 38 sec)
Heartbeat CPU 13 instructions: 750000001 cycles: 187503460 heartbeat IPC: 4 cumulative IPC: 4 (Simulation time: 00 hr 40 min 38 sec)
Heartbeat CPU 7 instructions: 750000001 cycles: 187503600 heartbeat IPC: 4 cumulative IPC: 4 (Simulation time: 00 hr 40 min 38 sec)
Heartbeat CPU 2 instructions: 750000001 cycles: 187503607 heartbeat IPC: 4 cumulative IPC: 4 (Simulation time: 00 hr 40 min 38 sec)
Heartbeat CPU 12 instructions: 750000001 cycles: 187503614 heartbeat IPC: 4 cumulative IPC: 4 (Simulation time: 00 hr 40 min 38 sec)
*** Reached end of trace: (0, "traces/canneal_big0.champsimtrace")
*** Reached end of trace: (10, "traces/canneal_big0.champsimtrace")
*** Reached end of trace: (15, "traces/canneal_big0.champsimtrace")
Heartbeat CPU 0 instructions: 500000145 cycles: 188224193 heartbeat IPC: 2.666 cumulative IPC: 2.668 (Simulation time: 00 hr 46 min 37 sec)
Heartbeat CPU 10 instructions: 500000145 cycles: 188224193 heartbeat IPC: 2.666 cumulative IPC: 2.668 (Simulation time: 00 hr 46 min 37 sec)
Heartbeat CPU 15 instructions: 500000145 cycles: 188224194 heartbeat IPC: 2.666 cumulative IPC: 2.668 (Simulation time: 00 hr 46 min 37 sec)
*** Reached end of trace: (6, "traces/canneal_big1.champsimtrace")
*** Reached end of trace: (4, "traces/canneal_big4.champsimtrace")
*** Reached end of trace: (14, "traces/canneal_big4.champsimtrace")
*** Reached end of trace: (9, "traces/canneal_big4.champsimtrace")
*** Reached end of trace: (3, "traces/canneal_big3.champsimtrace")
*** Reached end of trace: (8, "traces/canneal_big3.champsimtrace")
*** Reached end of trace: (13, "traces/canneal_big3.champsimtrace")
*** Reached end of trace: (7, "traces/canneal_big2.champsimtrace")
*** Reached end of trace: (2, "traces/canneal_big2.champsimtrace")
*** Reached end of trace: (12, "traces/canneal_big2.champsimtrace")
*** Reached end of trace: (5, "traces/canneal_big0.champsimtrace")
*** Reached end of trace: (4, "traces/canneal_big4.champsimtrace")
*** Reached end of trace: (14, "traces/canneal_big4.champsimtrace")
Heartbeat CPU 14 instructions: 760000001 cycles: 190003232 heartbeat IPC: 4 cumulative IPC: 4 (Simulation time: 01 hr 03 min 22 sec)
Heartbeat CPU 4 instructions: 760000001 cycles: 190003232 heartbeat IPC: 4 cumulative IPC: 4 (Simulation time: 01 hr 03 min 22 sec)
*** Reached end of trace: (9, "traces/canneal_big4.champsimtrace")
*** Reached end of trace: (3, "traces/canneal_big3.champsimtrace")
*** Reached end of trace: (8, "traces/canneal_big3.champsimtrace")
*** Reached end of trace: (13, "traces/canneal_big3.champsimtrace")
Heartbeat CPU 9 instructions: 760000001 cycles: 190003428 heartbeat IPC: 4 cumulative IPC: 4 (Simulation time: 01 hr 03 min 22 sec)
*** Reached end of trace: (7, "traces/canneal_big2.champsimtrace")
*** Reached end of trace: (2, "traces/canneal_big2.champsimtrace")
Heartbeat CPU 3 instructions: 760000001 cycles: 190003453 heartbeat IPC: 4 cumulative IPC: 4 (Simulation time: 01 hr 03 min 22 sec)
*** Reached end of trace: (12, "traces/canneal_big2.champsimtrace")
Heartbeat CPU 8 instructions: 760000001 cycles: 190003456 heartbeat IPC: 4 cumulative IPC: 4 (Simulation time: 01 hr 03 min 22 sec)
Heartbeat CPU 13 instructions: 760000001 cycles: 190003460 heartbeat IPC: 4 cumulative IPC: 4 (Simulation time: 01 hr 03 min 22 sec)
Heartbeat CPU 7 instructions: 760000001 cycles: 190003600 heartbeat IPC: 4 cumulative IPC: 4 (Simulation time: 01 hr 03 min 22 sec)
Heartbeat CPU 2 instructions: 760000001 cycles: 190003607 heartbeat IPC: 4 cumulative IPC: 4 (Simulation time: 01 hr 03 min 22 sec)
Heartbeat CPU 12 instructions: 760000001 cycles: 190003614 heartbeat IPC: 4 cumulative IPC: 4 (Simulation time: 01 hr 03 min 22 sec)
*** Reached end of trace: (10, "traces/canneal_big0.champsimtrace")
*** Reached end of trace: (0, "traces/canneal_big0.champsimtrace")
*** Reached end of trace: (15, "traces/canneal_big0.champsimtrace")
*** Reached end of trace: (5, "traces/canneal_big0.champsimtrace")
Heartbeat CPU 5 instructions: 490000144 cycles: 191026729 heartbeat IPC: 2.555 cumulative IPC: 2.561 (Simulation time: 01 hr 12 min 47 sec)
*** Reached end of trace: (4, "traces/canneal_big4.champsimtrace")
*** Reached end of trace: (14, "traces/canneal_big4.champsimtrace")
*** Reached end of trace: (9, "traces/canneal_big4.champsimtrace")
*** Reached end of trace: (3, "traces/canneal_big3.champsimtrace")
*** Reached end of trace: (8, "traces/canneal_big3.champsimtrace")
*** Reached end of trace: (13, "traces/canneal_big3.champsimtrace")
*** Reached end of trace: (7, "traces/canneal_big2.champsimtrace")
*** Reached end of trace: (2, "traces/canneal_big2.champsimtrace")
*** Reached end of trace: (12, "traces/canneal_big2.champsimtrace")
*** Reached end of trace: (10, "traces/canneal_big0.champsimtrace")
*** Reached end of trace: (0, "traces/canneal_big0.champsimtrace")
*** Reached end of trace: (15, "traces/canneal_big0.champsimtrace")
Heartbeat CPU 0 instructions: 510000145 cycles: 191971775 heartbeat IPC: 2.668 cumulative IPC: 2.668 (Simulation time: 01 hr 21 min 19 sec)
Heartbeat CPU 10 instructions: 510000145 cycles: 191971775 heartbeat IPC: 2.668 cumulative IPC: 2.668 (Simulation time: 01 hr 21 min 19 sec)
Heartbeat CPU 15 instructions: 510000145 cycles: 191971776 heartbeat IPC: 2.668 cumulative IPC: 2.668 (Simulation time: 01 hr 21 min 19 sec)
*** Reached end of trace: (4, "traces/canneal_big4.champsimtrace")
*** Reached end of trace: (14, "traces/canneal_big4.champsimtrace")
Heartbeat CPU 14 instructions: 770000001 cycles: 192503232 heartbeat IPC: 4 cumulative IPC: 4 (Simulation time: 01 hr 26 min 18 sec)
Heartbeat CPU 4 instructions: 770000001 cycles: 192503232 heartbeat IPC: 4 cumulative IPC: 4 (Simulation time: 01 hr 26 min 18 sec)
*** Reached end of trace: (9, "traces/canneal_big4.champsimtrace")
*** Reached end of trace: (3, "traces/canneal_big3.champsimtrace")
*** Reached end of trace: (8, "traces/canneal_big3.champsimtrace")
*** Reached end of trace: (13, "traces/canneal_big3.champsimtrace")
Heartbeat CPU 9 instructions: 770000001 cycles: 192503428 heartbeat IPC: 4 cumulative IPC: 4 (Simulation time: 01 hr 26 min 18 sec)
*** Reached end of trace: (7, "traces/canneal_big2.champsimtrace")
*** Reached end of trace: (2, "traces/canneal_big2.champsimtrace")
Heartbeat CPU 3 instructions: 770000001 cycles: 192503453 heartbeat IPC: 4 cumulative IPC: 4 (Simulation time: 01 hr 26 min 18 sec)
*** Reached end of trace: (12, "traces/canneal_big2.champsimtrace")
Heartbeat CPU 8 instructions: 770000001 cycles: 192503456 heartbeat IPC: 4 cumulative IPC: 4 (Simulation time: 01 hr 26 min 18 sec)
Heartbeat CPU 13 instructions: 770000001 cycles: 192503460 heartbeat IPC: 4 cumulative IPC: 4 (Simulation time: 01 hr 26 min 18 sec)
Heartbeat CPU 7 instructions: 770000001 cycles: 192503600 heartbeat IPC: 4 cumulative IPC: 4 (Simulation time: 01 hr 26 min 19 sec)
Heartbeat CPU 2 instructions: 770000001 cycles: 192503607 heartbeat IPC: 4 cumulative IPC: 4 (Simulation time: 01 hr 26 min 19 sec)
Heartbeat CPU 12 instructions: 770000001 cycles: 192503614 heartbeat IPC: 4 cumulative IPC: 4 (Simulation time: 01 hr 26 min 19 sec)
*** Reached end of trace: (5, "