[VMEM] WARNING: physical memory size is smaller than virtual memory size.

*** ChampSim Multicore Out-of-Order Simulator ***
Warmup Instructions: 50000000
Simulation Instructions: 100000000
Number of CPUs: 16
Page size: 4096

Off-chip DRAM Size: 16 GiB Channels: 1 Width: 64-bit Data Rate: 3205 MT/s
*** Reached end of trace: (11, "/home/harshraj/COALESCE-Hashed-Perceptron-Cache-Replacement-Policy/simulator/traces/canneal_big3.champsimtrace")
*** Reached end of trace: (2, "/home/harshraj/COALESCE-Hashed-Perceptron-Cache-Replacement-Policy/simulator/traces/canneal_big2.champsimtrace")
*** Reached end of trace: (7, "/home/harshraj/COALESCE-Hashed-Perceptron-Cache-Replacement-Policy/simulator/traces/canneal_big3.champsimtrace")
*** Reached end of trace: (3, "/home/harshraj/COALESCE-Hashed-Perceptron-Cache-Replacement-Policy/simulator/traces/canneal_big3.champsimtrace")
*** Reached end of trace: (15, "/home/harshraj/COALESCE-Hashed-Perceptron-Cache-Replacement-Policy/simulator/traces/canneal_big3.champsimtrace")
*** Reached end of trace: (10, "/home/harshraj/COALESCE-Hashed-Perceptron-Cache-Replacement-Policy/simulator/traces/canneal_big2.champsimtrace")
*** Reached end of trace: (6, "/home/harshraj/COALESCE-Hashed-Perceptron-Cache-Replacement-Policy/simulator/traces/canneal_big2.champsimtrace")
*** Reached end of trace: (14, "/home/harshraj/COALESCE-Hashed-Perceptron-Cache-Replacement-Policy/simulator/traces/canneal_big2.champsimtrace")
*** Reached end of trace: (0, "/home/harshraj/COALESCE-Hashed-Perceptron-Cache-Replacement-Policy/simulator/traces/canneal_big0.champsimtrace")
*** Reached end of trace: (8, "/home/harshraj/COALESCE-Hashed-Perceptron-Cache-Replacement-Policy/simulator/traces/canneal_big0.champsimtrace")
*** Reached end of trace: (12, "/home/harshraj/COALESCE-Hashed-Perceptron-Cache-Replacement-Policy/simulator/traces/canneal_big0.champsimtrace")
*** Reached end of trace: (4, "/home/harshraj/COALESCE-Hashed-Perceptron-Cache-Replacement-Policy/simulator/traces/canneal_big0.champsimtrace")
*** Reached end of trace: (11, "/home/harshraj/COALESCE-Hashed-Perceptron-Cache-Replacement-Policy/simulator/traces/canneal_big3.champsimtrace")
Heartbeat CPU 11 instructions: 10000001 cycles: 2503263 heartbeat IPC: 3.995 cumulative IPC: 3.995 (Simulation time: 00 hr 15 min 55 sec)
*** Reached end of trace: (2, "/home/harshraj/COALESCE-Hashed-Perceptron-Cache-Replacement-Policy/simulator/traces/canneal_big2.champsimtrace")
*** Reached end of trace: (7, "/home/harshraj/COALESCE-Hashed-Perceptron-Cache-Replacement-Policy/simulator/traces/canneal_big3.champsimtrace")
*** Reached end of trace: (3, "/home/harshraj/COALESCE-Hashed-Perceptron-Cache-Replacement-Policy/simulator/traces/canneal_big3.champsimtrace")
*** Reached end of trace: (15, "/home/harshraj/COALESCE-Hashed-Perceptron-Cache-Replacement-Policy/simulator/traces/canneal_big3.champsimtrace")
Heartbeat CPU 2 instructions: 10000001 cycles: 2503412 heartbeat IPC: 3.995 cumulative IPC: 3.995 (Simulation time: 00 hr 15 min 55 sec)
Heartbeat CPU 7 instructions: 10000001 cycles: 2503441 heartbeat IPC: 3.995 cumulative IPC: 3.995 (Simulation time: 00 hr 15 min 55 sec)
Heartbeat CPU 3 instructions: 10000001 cycles: 2503453 heartbeat IPC: 3.994 cumulative IPC: 3.994 (Simulation time: 00 hr 15 min 55 sec)
Heartbeat CPU 15 instructions: 10000001 cycles: 2503461 heartbeat IPC: 3.994 cumulative IPC: 3.994 (Simulation time: 00 hr 15 min 55 sec)
*** Reached end of trace: (10, "/home/harshraj/COALESCE-Hashed-Perceptron-Cache-Replacement-Policy/simulator/traces/canneal_big2.champsimtrace")
*** Reached end of trace: (6, "/home/harshraj/COALESCE-Hashed-Perceptron-Cache-Replacement-Policy/simulator/traces/canneal_big2.champsimtrace")
*** Reached end of trace: (14, "/home/harshraj/COALESCE-Hashed-Perceptron-Cache-Replacement-Policy/simulator/traces/canneal_big2.champsimtrace")
Heartbeat CPU 10 instructions: 10000001 cycles: 2503606 heartbeat IPC: 3.994 cumulative IPC: 3.994 (Simulation time: 00 hr 15 min 55 sec)
Heartbeat CPU 6 instructions: 10000001 cycles: 2503608 heartbeat IPC: 3.994 cumulative IPC: 3.994 (Simulation time: 00 hr 15 min 55 sec)
Heartbeat CPU 14 instructions: 10000001 cycles: 2503612 heartbeat IPC: 3.994 cumulative IPC: 3.994 (Simulation time: 00 hr 15 min 55 sec)
*** Reached end of trace: (11, "/home/harshraj/COALESCE-Hashed-Perceptron-Cache-Replacement-Policy/simulator/traces/canneal_big3.champsimtrace")
*** Reached end of trace: (2, "/home/harshraj/COALESCE-Hashed-Perceptron-Cache-Replacement-Policy/simulator/traces/canneal_big2.champsimtrace")
*** Reached end of trace: (7, "/home/harshraj/COALESCE-Hashed-Perceptron-Cache-Replacement-Policy/simulator/traces/canneal_big3.champsimtrace")
*** Reached end of trace: (3, "/home/harshraj/COALESCE-Hashed-Perceptron-Cache-Replacement-Policy/simulator/traces/canneal_big3.champsimtrace")
*** Reached end of trace: (15, "/home/harshraj/COALESCE-Hashed-Perceptron-Cache-Replacement-Policy/simulator/traces/canneal_big3.champsimtrace")
*** Reached end of trace: (10, "/home/harshraj/COALESCE-Hashed-Perceptron-Cache-Replacement-Policy/simulator/traces/canneal_big2.champsimtrace")
*** Reached end of trace: (6, "/home/harshraj/COALESCE-Hashed-Perceptron-Cache-Replacement-Policy/simulator/traces/canneal_big2.champsimtrace")
*** Reached end of trace: (14, "/home/harshraj/COALESCE-Hashed-Perceptron-Cache-Replacement-Policy/simulator/traces/canneal_big2.champsimtrace")
*** Reached end of trace: (8, "/home/harshraj/COALESCE-Hashed-Perceptron-Cache-Replacement-Policy/simulator/traces/canneal_big0.champsimtrace")
Heartbeat CPU 8 instructions: 10000003 cycles: 3966575 heartbeat IPC: 2.521 cumulative IPC: 2.521 (Simulation time: 00 hr 25 min 37 sec)
*** Reached end of trace: (12, "/home/harshraj/COALESCE-Hashed-Perceptron-Cache-Replacement-Policy/simulator/traces/canneal_big0.champsimtrace")
*** Reached end of trace: (0, "/home/harshraj/COALESCE-Hashed-Perceptron-Cache-Replacement-Policy/simulator/traces/canneal_big0.champsimtrace")
Heartbeat CPU 0 instructions: 10000003 cycles: 3968853 heartbeat IPC: 2.52 cumulative IPC: 2.52 (Simulation time: 00 hr 25 min 38 sec)
Heartbeat CPU 12 instructions: 10000003 cycles: 3968853 heartbeat IPC: 2.52 cumulative IPC: 2.52 (Simulation time: 00 hr 25 min 38 sec)
*** Reached end of trace: (4, "/home/harshraj/COALESCE-Hashed-Perceptron-Cache-Replacement-Policy/simulator/traces/canneal_big0.champsimtrace")
Heartbeat CPU 4 instructions: 10000003 cycles: 3972877 heartbeat IPC: 2.517 cumulative IPC: 2.517 (Simulation time: 00 hr 25 min 40 sec)
*** Reached end of trace: (9, "/home/harshraj/COALESCE-Hashed-Perceptron-Cache-Replacement-Policy/simulator/traces/canneal_big1.champsimtrace")
*** Reached end of trace: (1, "/home/harshraj/COALESCE-Hashed-Perceptron-Cache-Replacement-Policy/simulator/traces/canneal_big1.champsimtrace")
*** Reached end of trace: (13, "/home/harshraj/COALESCE-Hashed-Perceptron-Cache-Replacement-Policy/simulator/traces/canneal_big1.champsimtrace")
*** Reached end of trace: (5, "/home/harshraj/COALESCE-Hashed-Perceptron-Cache-Replacement-Policy/simulator/traces/canneal_big1.champsimtrace")
*** Reached end of trace: (11, "/home/harshraj/COALESCE-Hashed-Perceptron-Cache-Replacement-Policy/simulator/traces/canneal_big3.champsimtrace")
Heartbeat CPU 11 instructions: 20000001 cycles: 5003263 heartbeat IPC: 4 cumulative IPC: 3.997 (Simulation time: 00 hr 33 min 20 sec)
*** Reached end of trace: (2, "/home/harshraj/COALESCE-Hashed-Perceptron-Cache-Replacement-Policy/simulator/traces/canneal_big2.champsimtrace")
*** Reached end of trace: (7, "/home/harshraj/COALESCE-Hashed-Perceptron-Cache-Replacement-Policy/simulator/traces/canneal_big3.champsimtrace")
*** Reached end of trace: (3, "/home/harshraj/COALESCE-Hashed-Perceptron-Cache-Replacement-Policy/simulator/traces/canneal_big3.champsimtrace")
*** Reached end of trace: (15, "/home/harshraj/COALESCE-Hashed-Perceptron-Cache-Replacement-Policy/simulator/traces/canneal_big3.champsimtrace")
Heartbeat CPU 2 instructions: 20000001 cycles: 5003412 heartbeat IPC: 4 cumulative IPC: 3.997 (Simulation time: 00 hr 33 min 20 sec)
Heartbeat CPU 7 instructions: 20000001 cycles: 5003441 heartbeat IPC: 4 cumulative IPC: 3.997 (Simulation time: 00 hr 33 min 20 sec)
Heartbeat CPU 3 instructions: 20000001 cycles: 5003453 heartbeat IPC: 4 cumulative IPC: 3.997 (Simulation time: 00 hr 33 min 20 sec)
Heartbeat CPU 15 instructions: 20000001 cycles: 5003461 heartbeat IPC: 4 cumulative IPC: 3.997 (Simulation time: 00 hr 33 min 20 sec)
*** Reached end of trace: (10, "/home/harshraj/COALESCE-Hashed-Perceptron-Cache-Replacement-Policy/simulator/traces/canneal_big2.champsimtrace")
*** Reached end of trace: (6, "/home/harshraj/COALESCE-Hashed-Perceptron-Cache-Replacement-Policy/simulator/traces/canneal_big2.champsimtrace")
*** Reached end of trace: (14, "/home/harshraj/COALESCE-Hashed-Perceptron-Cache-Replacement-Policy/simulator/traces/canneal_big2.champsimtrace")
Heartbeat CPU 10 instructions: 20000001 cycles: 5003606 heartbeat IPC: 4 cumulative IPC: 3.997 (Simulation time: 00 hr 33 min 20 sec)
Heartbeat CPU 6 instructions: 20000001 cycles: 5003608 heartbeat IPC: 4 cumulative IPC: 3.997 (Simulation time: 00 hr 33 min 20 sec)
Heartbeat CPU 14 instructions: 20000001 cycles: 5003612 heartbeat IPC: 4 cumulative IPC: 3.997 (Simulation time: 00 hr 33 min 20 sec)
*** Reached end of trace: (8, "/home/harshraj/COALESCE-Hashed-Perceptron-Cache-Replacement-Policy/simulator/traces/canneal_big0.champsimtrace")
*** Reached end of trace: (12, "/home/harshraj/COALESCE-Hashed-Perceptron-Cache-Replacement-Policy/simulator/traces/canneal_big0.champsimtrace")
*** Reached end of trace: (0, "/home/harshraj/COALESCE-Hashed-Perceptron-Cache-Replacement-Policy/simulator/traces/canneal_big0.champsimtrace")
*** Reached end of trace: (4, "/home/harshraj/COALESCE-Hashed-Perceptron-Cache-Replacement-Policy/simulator/traces/canneal_big0.champsimtrace")
*** Reached end of trace: (11, "/home/harshraj/COALESCE-Hashed-Perceptron-Cache-Replacement-Policy/simulator/traces/canneal_big3.champsimtrace")
*** Reached end of trace: (2, "/home/harshraj/COALESCE-Hashed-Perceptron-Cache-Replacement-Policy/simulator/traces/canneal_big2.champsimtrace")
*** Reached end of trace: (7, "/home/harshraj/COALESCE-Hashed-Perceptron-Cache-Replacement-Policy/simulator/traces/canneal_big3.champsimtrace")
*** Reached end of trace: (3, "/home/harshraj/COALESCE-Hashed-Perceptron-Cache-Replacement-Policy/simulator/traces/canneal_big3.champsimtrace")
*** Reached end of trace: (15, "/home/harshraj/COALESCE-Hashed-Perceptron-Cache-Replacement-Policy/simulator/traces/canneal_big3.champsimtrace")
*** Reached end of trace: (10, "/home/harshraj/COALESCE-Hashed-Perceptron-Cache-Replacement-Policy/simulator/traces/canneal_big2.champsimtrace")
*** Reached end of trace: (6, "/home/harshraj/COALESCE-Hashed-Perceptron-Cache-Replacement-Policy/simulator/traces/canneal_big2.champsimtrace")
*** Reached end of trace: (14, "/home/harshraj/COALESCE-Hashed-Perceptron-Cache-Replacement-Policy/simulator/traces/canneal_big2.champsimtrace")
*** Reached end of trace: (13, "/home/harshraj/COALESCE-Hashed-Perceptron-Cache-Replacement-Policy/simulator/traces/canneal_big1.champsimtrace")
*** Reached end of trace: (1, "/home/harshraj/COALESCE-Hashed-Perceptron-Cache-Replacement-Policy/simulator/traces/canneal_big1.champsimtrace")
Heartbeat CPU 13 instructions: 10000002 cycles: 7022188 heartbeat IPC: 1.424 cumulative IPC: 1.424 (Simulation time: 00 hr 47 min 05 sec)
Heartbeat CPU 1 instructions: 10000002 cycles: 7022201 heartbeat IPC: 1.424 cumulative IPC: 1.424 (Simulation time: 00 hr 47 min 05 sec)
*** Reached end of trace: (9, "/home/harshraj/COALESCE-Hashed-Perceptron-Cache-Replacement-Policy/simulator/traces/canneal_big1.champsimtrace")
Heartbeat CPU 9 instructions: 10000002 cycles: 7022896 heartbeat IPC: 1.424 cumulative IPC: 1.424 (Simulation time: 00 hr 47 min 05 sec)
*** Reached end of trace: (5, "/home/harshraj/COALESCE-Hashed-Perceptron-Cache-Replacement-Policy/simulator/traces/canneal_big1.champsimtrace")
Heartbeat CPU 5 instructions: 10000002 cycles: 7029931 heartbeat IPC: 1.422 cumulative IPC: 1.422 (Simulation time: 00 hr 47 min 09 sec)
*** Reached end of trace: (11, "/home/harshraj/COALESCE-Hashed-Perceptron-Cache-Replacement-Policy/simulator/traces/canneal_big3.champsimtrace")
Heartbeat CPU 11 instructions: 30000001 cycles: 7503263 heartbeat IPC: 4 cumulative IPC: 3.998 (Simulation time: 00 hr 50 min 20 sec)
*** Reached end of trace: (2, "/home/harshraj/COALESCE-Hashed-Perceptron-Cache-Replacement-Policy/simulator/traces/canneal_big2.champsimtrace")
*** Reached end of trace: (7, "/home/harshraj/COALESCE-Hashed-Perceptron-Cache-Replacement-Policy/simulator/traces/canneal_big3.champsimtrace")
*** Reached end of trace: (3, "/home/harshraj/COALESCE-Hashed-Perceptron-Cache-Replacement-Policy/simulator/traces/canneal_big3.champsimtrace")
*** Reached end of trace: (15, "/home/harshraj/COALESCE-Hashed-Perceptron-Cache-Replacement-Policy/simulator/traces/canneal_big3.champsimtrace")
Heartbeat CPU 2 instructions: 30000001 cycles: 7503412 heartbeat IPC: 4 cumulative IPC: 3.998 (Simulation time: 00 hr 50 min 20 sec)
Heartbeat CPU 7 instructions: 30000001 cycles: 7503441 heartbeat IPC: 4 cumulative IPC: 3.998 (Simulation time: 00 hr 50 min 20 sec)
Heartbeat CPU 3 instructions: 30000001 cycles: 7503453 heartbeat IPC: 4 cumulative IPC: 3.998 (Simulation time: 00 hr 50 min 20 sec)
Heartbeat CPU 15 instructions: 30000001 cycles: 7503461 heartbeat IPC: 4 cumulative IPC: 3.998 (Simulation time: 00 hr 50 min 20 sec)
*** Reached end of trace: (10, "/home/harshraj/COALESCE-Hashed-Perceptron-Cache-Replacement-Policy/simulator/traces/canneal_big2.champsimtrace")
*** Reached end of trace: (6, "/home/harshraj/COALESCE-Hashed-Perceptron-Cache-Replacement-Policy/simulator/traces/canneal_big2.champsimtrace")
*** Reached end of trace: (14, "/home/harshraj/COALESCE-Hashed-Perceptron-Cache-Replacement-Policy/simulator/traces/canneal_big2.champsimtrace")
Heartbeat CPU 10 instructions: 30000001 cycles: 7503606 heartbeat IPC: 4 cumulative IPC: 3.998 (Simulation time: 00 hr 50 min 20 sec)
Heartbeat CPU 6 instructions: 30000001 cycles: 7503608 heartbeat IPC: 4 cumulative IPC: 3.998 (Simulation time: 00 hr 50 min 20 sec)
Heartbeat CPU 14 instructions: 30000001 cycles: 7503612 heartbeat IPC: 4 cumulative IPC: 3.998 (Simulation time: 00 hr 50 min 20 sec)
*** Reached end of trace: (8, "/home/harshraj/COALESCE-Hashed-Perceptron-Cache-Replacement-Policy/simulator/traces/canneal_big0.champsimtrace")
Heartbeat CPU 8 instructions: 20000006 cycles: 7808410 heartbeat IPC: 2.603 cumulative IPC: 2.561 (Simulation time: 00 hr 52 min 09 sec)
*** Reached end of trace: (12, "/home/harshraj/COALESCE-Hashed-Perceptron-Cache-Replacement-Policy/simulator/traces/canneal_big0.champsimtrace")
*** Reached end of trace: (0, "/home/harshraj/COALESCE-Hashed-Perceptron-Cache-Replacement-Policy/simulator/traces/canneal_big0.champsimtrace")
Heartbeat CPU 0 instructions: 20000006 cycles: 7812206 heartbeat IPC: 2.602 cumulative IPC: 2.56 (Simulation time: 00 hr 52 min 11 sec)
Heartbeat CPU 12 instructions: 20000006 cycles: 7812206 heartbeat IPC: 2.602 cumulative IPC: 2.56 (Simulation time: 00 hr 52 min 11 sec)
*** Reached end of trace: (4, "/home/harshraj/COALESCE-Hashed-Perceptron-Cache-Replacement-Policy/simulator/traces/canneal_big0.champsimtrace")
Heartbeat CPU 4 instructions: 20000006 cycles: 7826995 heartbeat IPC: 2.595 cumulative IPC: 2.555 (Simulation time: 00 hr 52 min 17 sec)
*** Reached end of trace: (11, "/home/harshraj/COALESCE-Hashed-Perceptron-Cache-Replacement-Policy/simulator/traces/canneal_big3.champsimtrace")
*** Reached end of trace: (2, "/home/harshraj/COALESCE-Hashed-Perceptron-Cache-Replacement-Policy/simulator/traces/canneal_big2.champsimtrace")
*** Reached end of trace: (7, "/home/harshraj/COALESCE-Hashed-Perceptron-Cache-Replacement-Policy/simulator/traces/canneal_big3.champsimtrace")
*** Reached end of trace: (3, "/home/harshraj/COALESCE-Hashed-Perceptron-Cache-Replacement-Policy/simulator/traces/canneal_big3.champsimtrace")
*** Reached end of trace: (15, "/home/harshraj/COALESCE-Hashed-Perceptron-Cache-Replacement-Policy/simulator/traces/canneal_big3.champsimtrace")
*** Reached end of trace: (10, "/home/harshraj/COALESCE-Hashed-Perceptron-Cache-Replacement-Policy/simulator/traces/canneal_big2.champsimtrace")
*** Reached end of trace: (6, "/home/harshraj/COALESCE-Hashed-Perceptron-Cache-Replacement-Policy/simulator/traces/canneal_big2.champsimtrace")
*** Reached end of trace: (14, "/home/harshraj/COALESCE-Hashed-Perceptron-Cache-Replacement-Policy/simulator/traces/canneal_big2.champsimtrace")
*** Reached end of trace: (8, "/home/harshraj/COALESCE-Hashed-Perceptron-Cache-Replacement-Policy/simulator/traces/canneal_big0.champsimtrace")
*** Reached end of trace: (12, "/home/harshraj/COALESCE-Hashed-Perceptron-Cache-Replacement-Policy/simulator/traces/canneal_big0.champsimtrace")
*** Reached end of trace: (0, "/home/harshraj/COALESCE-Hashed-Perceptron-Cache-Replacement-Policy/simulator/traces/canneal_big0.champsimtrace")
*** Reached end of trace: (4, "/home/harshraj/COALESCE-Hashed-Perceptron-Cache-Replacement-Policy/simulator/traces/canneal_big0.champsimtrace")
*** Reached end of trace: (13, "/home/harshraj/COALESCE-Hashed-Perceptron-Cache-Replacement-Policy/simulator/traces/canneal_big1.champsimtrace")
*** Reached end of trace: (1, "/home/harshraj/COALESCE-Hashed-Perceptron-Cache-Replacement-Policy/simulator/traces/canneal_big1.champsimtrace")
*** Reached end of trace: (9, "/home/harshraj/COALESCE-Hashed-Perceptron-Cache-Replacement-Policy/simulator/traces/canneal_big1.champsimtrace")
*** Reached end of trace: (5, "/home/harshraj/COALESCE-Hashed-Perceptron-Cache-Replacement-Policy/simulator/traces/canneal_big1.champsimtrace")
*** Reached end of trace: (11, "/home/harshraj/COALESCE-Hashed-Perceptron-Cache-Replacement-Policy/simulator/traces/canneal_big3.champsimtrace")
Heartbeat CPU 11 instructions: 40000001 cycles: 10003263 heartbeat IPC: 4 cumulative IPC: 3.999 (Simulation time: 01 hr 04 min 38 sec)
*** Reached end of trace: (2, "/home/harshraj/COALESCE-Hashed-Perceptron-Cache-Replacement-Policy/simulator/traces/canneal_big2.champsimtrace")
*** Reached end of trace: (7, "/home/harshraj/COALESCE-Hashed-Perceptron-Cache-Replacement-Policy/simulator/traces/canneal_big3.champsimtrace")
*** Reached end of trace: (3, "/home/harshraj/COALESCE-Hashed-Perceptron-Cache-Replacement-Policy/simulator/traces/canneal_big3.champsimtrace")
*** Reached end of trace: (15, "/home/harshraj/COALESCE-Hashed-Perceptron-Cache-Replacement-Policy/simulator/traces/canneal_big3.champsimtrace")
Heartbeat CPU 2 instructions: 40000001 cycles: 10003412 heartbeat IPC: 4 cumulative IPC: 3.999 (Simulation time: 01 hr 04 min 39 sec)
Heartbeat CPU 7 instructions: 40000001 cycles: 10003441 heartbeat IPC: 4 cumulative IPC: 3.999 (Simulation time: 01 hr 04 min 39 sec)
Heartbeat CPU 3 instructions: 40000001 cycles: 10003453 heartbeat IPC: 4 cumulative IPC: 3.999 (Simulation time: 01 hr 04 min 39 sec)
Heartbeat CPU 15 instructions: 40000001 cycles: 10003461 heartbeat IPC: 4 cumulative IPC: 3.999 (Simulation time: 01 hr 04 min 39 sec)
*** Reached end of trace: (10, "/home/harshraj/COALESCE-Hashed-Perceptron-Cache-Replacement-Policy/simulator/traces/canneal_big2.champsimtrace")
*** Reached end of trace: (6, "/home/harshraj/COALESCE-Hashed-Perceptron-Cache-Replacement-Policy/simulator/traces/canneal_big2.champsimtrace")
*** Reached end of trace: (14, "/home/harshraj/COALESCE-Hashed-Perceptron-Cache-Replacement-Policy/simulator/traces/canneal_big2.champsimtrace")
Heartbeat CPU 10 instructions: 40000001 cycles: 10003606 heartbeat IPC: 4 cumulative IPC: 3.999 (Simulation time: 01 hr 04 min 39 sec)
Heartbeat CPU 6 instructions: 40000001 cycles: 10003608 heartbeat IPC: 4 cumulative IPC: 3.999 (Simulation time: 01 hr 04 min 39 sec)
Heartbeat CPU 14 instructions: 40000001 cycles: 10003612 heartbeat IPC: 4 cumulative IPC: 3.999 (Simulation time: 01 hr 04 min 39 sec)
*** Reached end of trace: (11, "/home/harshraj/COALESCE-Hashed-Perceptron-Cache-Replacement-Policy/simulator/traces/canneal_big3.champsimtrace")
*** Reached end of trace: (2, "/home/harshraj/COALESCE-Hashed-Perceptron-Cache-Replacement-Policy/simulator/traces/canneal_big2.champsimtrace")
*** Reached end of trace: (7, "/home/harshraj/COALESCE-Hashed-Perceptron-Cache-Replacement-Policy/simulator/traces/canneal_big3.champsimtrace")
*** Reached end of trace: (3, "/home/harshraj/COALESCE-Hashed-Perceptron-Cache-Replacement-Policy/simulator/traces/canneal_big3.champsimtrace")
*** Reached end of trace: (15, "/home/harshraj/COALESCE-Hashed-Perceptron-Cache-Replacement-Policy/simulator/traces/canneal_big3.champsimtrace")
*** Reached end of trace: (10, "/home/harshraj/COALESCE-Hashed-Perceptron-Cache-Replacement-Policy/simulator/traces/canneal_big2.champsimtrace")
*** Reached end of trace: (6, "/home/harshraj/COALESCE-Hashed-Perceptron-Cache-Replacement-Policy/simulator/traces/canneal_big2.champsimtrace")
*** Reached end of trace: (14, "/home/harshraj/COALESCE-Hashed-Perceptron-Cache-Replacement-Policy/simulator/traces/canneal_big2.champsimtrace")
*** Reached end of trace: (8, "/home/harshraj/COALESCE-Hashed-Perceptron-Cache-Replacement-Policy/simulator/traces/canneal_big0.champsimtrace")
Heartbeat CPU 8 instructions: 30000009 cycles: 11650231 heartbeat IPC: 2.603 cumulative IPC: 2.575 (Simulation time: 01 hr 16 min 50 sec)
*** Reached end of trace: (12, "/home/harshraj/COALESCE-Hashed-Perceptron-Cache-Replacement-Policy/simulator/traces/canneal_big0.champsimtrace")
*** Reached end of trace: (0, "/home/harshraj/COALESCE-Hashed-Perceptron-Cache-Replacement-Policy/simulator/traces/canneal_big0.champsimtrace")
Heartbeat CPU 0 instructions: 30000009 cycles: 11655860 heartbeat IPC: 2.602 cumulative IPC: 2.574 (Simulation time: 01 hr 16 min 53 sec)
Heartbeat CPU 12 instructions: 30000009 cycles: 11655860 heartbeat IPC: 2.602 cumulative IPC: 2.574 (Simulation time: 01 hr 16 min 53 sec)
*** Reached end of trace: (4, "/home/harshraj/COALESCE-Hashed-Perceptron-Cache-Replacement-Policy/simulator/traces/canneal_big0.champsimtrace")
Heartbeat CPU 4 instructions: 30000009 cycles: 11680796 heartbeat IPC: 2.595 cumulative IPC: 2.568 (Simulation time: 01 hr 17 min 05 sec)
*** Reached end of trace: (11, "/home/harshraj/COALESCE-Hashed-Perceptron-Cache-Replacement-Policy/simulator/traces/canneal_big3.champsimtrace")
Heartbeat CPU 11 instructions: 50000001 cycles: 12503263 heartbeat IPC: 4 cumulative IPC: 3.999 (Simulation time: 01 hr 23 min 23 sec)
Warmup finished CPU 11 instructions: 50000001 cycles: 12503263 cumulative IPC: 3.999 (Simulation time: 01 hr 23 min 23 sec)
*** Reached end of trace: (2, "/home/harshraj/COALESCE-Hashed-Perceptron-Cache-Replacement-Policy/simulator/traces/canneal_big2.champsimtrace")
*** Reached end of trace: (7, "/home/harshraj/COALESCE-Hashed-Perceptron-Cache-Replacement-Policy/simulator/traces/canneal_big3.champsimtrace")
*** Reached end of trace: (3, "/home/harshraj/COALESCE-Hashed-Perceptron-Cache-Replacement-Policy/simulator/traces/canneal_big3.champsimtrace")
*** Reached end of trace: (15, "/home/harshraj/COALESCE-Hashed-Perceptron-Cache-Replacement-Policy/simulator/traces/canneal_big3.champsimtrace")
Heartbeat CPU 2 instructions: 50000001 cycles: 12503412 heartbeat IPC: 4 cumulative IPC: 3.999 (Simulation time: 01 hr 23 min 23 sec)
Warmup finished CPU 2 instructions: 50000001 cycles: 12503412 cumulative IPC: 3.999 (Simulation time: 01 hr 23 min 23 sec)
Heartbeat CPU 7 instructions: 50000001 cycles: 12503441 heartbeat IPC: 4 cumulative IPC: 3.999 (Simulation time: 01 hr 23 min 23 sec)
Warmup finished CPU 7 instructions: 50000001 cycles: 12503441 cumulative IPC: 3.999 (Simulation time: 01 hr 23 min 23 sec)
Heartbeat CPU 3 instructions: 50000001 cycles: 12503453 heartbeat IPC: 4 cumulative IPC: 3.999 (Simulation time: 01 hr 23 min 23 sec)
Warmup finished CPU 3 instructions: 50000001 cycles: 12503453 cumulative IPC: 3.999 (Simulation time: 01 hr 23 min 23 sec)
Heartbeat CPU 15 instructions: 50000001 cycles: 12503461 heartbeat IPC: 4 cumulative IPC: 3.999 (Simulation time: 01 hr 23 min 23 sec)
Warmup finished CPU 15 instructions: 50000001 cycles: 12503461 cumulative IPC: 3.999 (Simulation time: 01 hr 23 min 23 sec)
*** Reached end of trace: (10, "/home/harshraj/COALESCE-Hashed-Perceptron-Cache-Replacement-Policy/simulator/traces/canneal_big2.champsimtrace")
*** Reached end of trace: (6, "/home/harshraj/COALESCE-Hashed-Perceptron-Cache-Replacement-Policy/simulator/traces/canneal_big2.champsimtrace")
*** Reached end of trace: (14, "/home/harshraj/COALESCE-Hashed-Perceptron-Cache-Replacement-Policy/simulator/traces/canneal_big2.champsimtrace")
Heartbeat CPU 10 instructions: 50000001 cycles: 12503606 heartbeat IPC: 4 cumulative IPC: 3.999 (Simulation time: 01 hr 23 min 23 sec)
Warmup finished CPU 10 instructions: 50000001 cycles: 12503606 cumulative IPC: 3.999 (Simulation time: 01 hr 23 min 23 sec)
Heartbeat CPU 6 instructions: 50000001 cycles: 12503608 heartbeat IPC: 4 cumulative IPC: 3.999 (Simulation time: 01 hr 23 min 23 sec)
Warmup finished CPU 6 instructions: 50000001 cycles: 12503608 cumulative IPC: 3.999 (Simulation time: 01 hr 23 min 23 sec)
Heartbeat CPU 14 instructions: 50000001 cycles: 12503612 heartbeat IPC: 4 cumulative IPC: 3.999 (Simulation time: 01 hr 23 min 23 sec)
Warmup finished CPU 14 instructions: 50000001 cycles: 12503612 cumulative IPC: 3.999 (Simulation time: 01 hr 23 min 23 sec)
*** Reached end of trace: (13, "/home/harshraj/COALESCE-Hashed-Perceptron-Cache-Replacement-Policy/simulator/traces/canneal_big1.champsimtrace")
*** Reached end of trace: (1, "/home/harshraj/COALESCE-Hashed-Perceptron-Cache-Replacement-Policy/simulator/traces/canneal_big1.champsimtrace")
Heartbeat CPU 13 instructions: 20000004 cycles: 12704873 heartbeat IPC: 1.76 cumulative IPC: 1.574 (Simulation time: 01 hr 24 min 51 sec)
Heartbeat CPU 1 instructions: 20000004 cycles: 12704875 heartbeat IPC: 1.76 cumulative IPC: 1.574 (Simulation time: 01 hr 24 min 51 sec)
*** Reached end of trace: (9, "/home/harshraj/COALESCE-Hashed-Perceptron-Cache-Replacement-Policy/simulator/traces/canneal_big1.champsimtrace")
Heartbeat CPU 9 instructions: 20000004 cycles: 12706689 heartbeat IPC: 1.759 cumulative IPC: 1.574 (Simulation time: 01 hr 24 min 51 sec)
*** Reached end of trace: (5, "/home/harshraj/COALESCE-Hashed-Perceptron-Cache-Replacement-Policy/simulator/traces/canneal_big1.champsimtrace")
Heartbeat CPU 5 instructions: 20000004 cycles: 12727834 heartbeat IPC: 1.755 cumulative IPC: 1.571 (Simulation time: 01 hr 25 min 01 sec)
*** Reached end of trace: (8, "/home/harshraj/COALESCE-Hashed-Perceptron-Cache-Replacement-Policy/simulator/traces/canneal_big0.champsimtrace")
*** Reached end of trace: (12, "/home/harshraj/COALESCE-Hashed-Perceptron-Cache-Replacement-Policy/simulator/traces/canneal_big0.champsimtrace")
*** Reached end of trace: (0, "/home/harshraj/COALESCE-Hashed-Perceptron-Cache-Replacement-Policy/simulator/traces/canneal_big0.champsimtrace")
*** Reached end of trace: (4, "/home/harshraj/COALESCE-Hashed-Perceptron-Cache-Replacement-Policy/simulator/traces/canneal_big0.champsimtrace")
*** Reached end of trace: (11, "/home/harshraj/COALESCE-Hashed-Perceptron-Cache-Replacement-Policy/simulator/traces/canneal_big3.champsimtrace")
*** Reached end of trace: (2, "/home/harshraj/COALESCE-Hashed-Perceptron-Cache-Replacement-Policy/simulator/traces/canneal_big2.champsimtrace")
*** Reached end of trace: (7, "/home/harshraj/COALESCE-Hashed-Perceptron-Cache-Replacement-Policy/simulator/traces/canneal_big3.champsimtrace")
*** Reached end of trace: (3, "/home/harshraj/COALESCE-Hashed-Perceptron-Cache-Replacement-Policy/simulator/traces/canneal_big3.champsimtrace")
*** Reached end of trace: (15, "/home/harshraj/COALESCE-Hashed-Perceptron-Cache-Replacement-Policy/simulator/traces/canneal_big3.champsimtrace")
*** Reached end of trace: (10, "/home/harshraj/COALESCE-Hashed-Perceptron-Cache-Replacement-Policy/simulator/traces/canneal_big2.champsimtrace")
*** Reached end of trace: (6, "/home/harshraj/COALESCE-Hashed-Perceptron-Cache-Replacement-Policy/simulator/traces/canneal_big2.champsimtrace")
*** Reached end of trace: (14, "/home/harshraj/COALESCE-Hashed-Perceptron-Cache-Replacement-Policy/simulator/traces/canneal_big2.champsimtrace")
*** Reached end of trace: (11, "/home/harshraj/COALESCE-Hashed-Perceptron-Cache-Replacement-Policy/simulator/traces/canneal_big3.champsimtrace")
Heartbeat CPU 11 instructions: 60000001 cycles: 15003263 heartbeat IPC: 4 cumulative IPC: 3.999 (Simulation time: 01 hr 39 min 09 sec)
*** Reached end of trace: (2, "/home/harshraj/COALESCE-Hashed-Perceptron-Cache-Replacement-Policy/simulator/traces/canneal_big2.champsimtrace")
*** Reached end of trace: (7, "/home/harshraj/COALESCE-Hashed-Perceptron-Cache-Replacement-Policy/simulator/traces/canneal_big3.champsimtrace")
*** Reached end of trace: (3, "/home/harshraj/COALESCE-Hashed-Perceptron-Cache-Replacement-Policy/simulator/traces/canneal_big3.champsimtrace")
*** Reached end of trace: (15, "/home/harshraj/COALESCE-Hashed-Perceptron-Cache-Replacement-Policy/simulator/traces/canneal_big3.champsimtrace")
Heartbeat CPU 2 instructions: 60000001 cycles: 15003412 heartbeat IPC: 4 cumulative IPC: 3.999 (Simulation time: 01 hr 39 min 09 sec)
Heartbeat CPU 7 instructions: 60000001 cycles: 15003441 heartbeat IPC: 4 cumulative IPC: 3.999 (Simulation time: 01 hr 39 min 09 sec)
Heartbeat CPU 3 instructions: 60000001 cycles: 15003453 heartbeat IPC: 4 cumulative IPC: 3.999 (Simulation time: 01 hr 39 min 09 sec)
Heartbeat CPU 15 instructions: 60000001 cycles: 15003461 heartbeat IPC: 4 cumulative IPC: 3.999 (Simulation time: 01 hr 39 min 09 sec)
*** Reached end of trace: (10, "/home/harshraj/COALESCE-Hashed-Perceptron-Cache-Replacement-Policy/simulator/traces/canneal_big2.champsimtrace")
*** Reached end of trace: (6, "/home/harshraj/COALESCE-Hashed-Perceptron-Cache-Replacement-Policy/simulator/traces/canneal_big2.champsimtrace")
*** Reached end of trace: (14, "/home/harshraj/COALESCE-Hashed-Perceptron-Cache-Replacement-Policy/simulator/traces/canneal_big2.champsimtrace")
Heartbeat CPU 10 instructions: 60000001 cycles: 15003606 heartbeat IPC: 4 cumulative IPC: 3.999 (Simulation time: 01 hr 39 min 09 sec)
Heartbeat CPU 6 instructions: 60000001 cycles: 15003608 heartbeat IPC: 4 cumulative IPC: 3.999 (Simulation time: 01 hr 39 min 09 sec)
Heartbeat CPU 14 instructions: 60000001 cycles: 15003612 heartbeat IPC: 4 cumulative IPC: 3.999 (Simulation time: 01 hr 39 min 09 sec)
*** Reached end of trace: (8, "/home/harshraj/COALESCE-Hashed-Perceptron-Cache-Replacement-Policy/simulator/traces/canneal_big0.champsimtrace")
Heartbeat CPU 8 instructions: 40000012 cycles: 15492077 heartbeat IPC: 2.603 cumulative IPC: 2.582 (Simulation time: 01 hr 42 min 52 sec)
*** Reached end of trace: (12, "/home/harshraj/COALESCE-Hashed-Perceptron-Cache-Replacement-Policy/simulator/traces/canneal_big0.champsimtrace")
Heartbeat CPU 12 instructions: 40000012 cycles: 15499791 heartbeat IPC: 2.602 cumulative IPC: 2.581 (Simulation time: 01 hr 42 min 55 sec)
*** Reached end of trace: (0, "/home/harshraj/COALESCE-Hashed-Perceptron-Cache-Replacement-Policy/simulator/traces/canneal_big0.champsimtrace")
Heartbeat CPU 0 instructions: 40000012 cycles: 15500105 heartbeat IPC: 2.601 cumulative IPC: 2.581 (Simulation time: 01 hr 42 min 56 sec)
*** Reached end of trace: (4, "/home/harshraj/COALESCE-Hashed-Perceptron-Cache-Replacement-Policy/simulator/traces/canneal_big0.champsimtrace")
Heartbeat CPU 4 instructions: 40000012 cycles: 15535372 heartbeat IPC: 2.594 cumulative IPC: 2.575 (Simulation time: 01 hr 43 min 14 sec)
*** Reached end of trace: (13, "/home/harshraj/COALESCE-Hashed-Perceptron-Cache-Replacement-Policy/simulator/traces/canneal_big1.champsimtrace")
*** Reached end of trace: (1, "/home/harshraj/COALESCE-Hashed-Perceptron-Cache-Replacement-Policy/simulator/traces/canneal_big1.champsimtrace")
*** Reached end of trace: (9, "/home/harshraj/COALESCE-Hashed-Perceptron-Cache-Replacement-Policy/simulator/traces/canneal_big1.champsimtrace")
*** Reached end of trace: (5, "/home/harshraj/COALESCE-Hashed-Perceptron-Cache-Replacement-Policy/simulator/traces/canneal_big1.champsimtrace")
*** Reached end of trace: (11, "/home/harshraj/COALESCE-Hashed-Perceptron-Cache-Replacement-Policy/simulator/traces/canneal_big3.champsimtrace")
*** Reached end of trace: (2, "/home/harshraj/COALESCE-Hashed-Perceptron-Cache-Replacement-Policy/simulator/traces/canneal_big2.champsimtrace")
*** Reached end of trace: (7, "/home/harshraj/COALESCE-Hashed-Perceptron-Cache-Replacement-Policy/simulator/traces/canneal_big3.champsimtrace")
*** Reached end of trace: (3, "/home/harshraj/COALESCE-Hashed-Perceptron-Cache-Replacement-Policy/simulator/traces/canneal_big3.champsimtrace")
*** Reached end of trace: (15, "/home/harshraj/COALESCE-Hashed-Perceptron-Cache-Replacement-Policy/simulator/traces/canneal_big3.champsimtrace")
*** Reached end of trace: (10, "/home/harshraj/COALESCE-Hashed-Perceptron-Cache-Replacement-Policy/simulator/traces/canneal_big2.champsimtrace")
*** Reached end of trace: (6, "/home/harshraj/COALESCE-Hashed-Perceptron-Cache-Replacement-Policy/simulator/traces/canneal_big2.champsimtrace")
*** Reached end of trace: (14, "/home/harshraj/COALESCE-Hashed-Perceptron-Cache-Replacement-Policy/simulator/traces/canneal_big2.champsimtrace")
*** Reached end of trace: (8, "/home/harshraj/COALESCE-Hashed-Perceptron-Cache-Replacement-Policy/simulator/traces/canneal_big0.champsimtrace")
*** Reached end of trace: (12, "/home/harshraj/COALESCE-Hashed-Perceptron-Cache-Replacement-Policy/simulator/traces/canneal_big0.champsimtrace")
*** Reached end of trace: (0, "/home/harshraj/COALESCE-Hashed-Perceptron-Cache-Replacement-Policy/simulator/traces/canneal_big0.champsimtrace")
*** Reached end of trace: (4, "/home/harshraj/COALESCE-Hashed-Perceptron-Cache-Replacement-Policy/simulator/traces/canneal_big0.champsimtrace")
*** Reached end of trace: (11, "/home/harshraj/COALESCE-Hashed-Perceptron-Cache-Replacement-Policy/simulator/traces/canneal_big3.champsimtrace")
Heartbeat CPU 11 instructions: 70000001 cycles: 17503263 heartbeat IPC: 4 cumulative IPC: 3.999 (Simulation time: 01 hr 55 min 52 sec)
*** Reached end of trace: (2, "/home/harshraj/COALESCE-Hashed-Perceptron-Cache-Replacement-Policy/simulator/traces/canneal_big2.champsimtrace")
*** Reached end of trace: (7, "/home/harshraj/COALESCE-Hashed-Perceptron-Cache-Replacement-Policy/simulator/traces/canneal_big3.champsimtrace")
*** Reached end of trace: (3, "/home/harshraj/COALESCE-Hashed-Perceptron-Cache-Replacement-Policy/simulator/traces/canneal_big3.champsimtrace")
*** Reached end of trace: (15, "/home/harshraj/COALESCE-Hashed-Perceptron-Cache-Replacement-Policy/simulator/traces/canneal_big3.champsimtrace")
Heartbeat CPU 2 instructions: 70000001 cycles: 17503412 heartbeat IPC: 4 cumulative IPC: 3.999 (Simulation time: 01 hr 55 min 52 sec)
Heartbeat CPU 7 instructions: 70000001 cycles: 17503441 heartbeat IPC: 4 cumulative IPC: 3.999 (Simulation time: 01 hr 55 min 52 sec)
Heartbeat CPU 3 instructions: 70000001 cycles: 17503453 heartbeat IPC: 4 cumulative IPC: 3.999 (Simulation time: 01 hr 55 min 52 sec)
Heartbeat CPU 15 instructions: 70000001 cycles: 17503461 heartbeat IPC: 4 cumulative IPC: 3.999 (Simulation time: 01 hr 55 min 52 sec)
*** Reached end of trace: (10, "/home/harshraj/COALESCE-Hashed-Perceptron-Cache-Replacement-Policy/simulator/traces/canneal_big2.champsimtrace")
*** Reached end of trace: (6, "/home/harshraj/COALESCE-Hashed-Perceptron-Cache-Replacement-Policy/simulator/traces/canneal_big2.champsimtrace")
*** Reached end of trace: (14, "/home/harshraj/COALESCE-Hashed-Perceptron-Cache-Replacement-Policy/simulator/traces/canneal_big2.champsimtrace")
Heartbeat CPU 10 instructions: 70000001 cycles: 17503606 heartbeat IPC: 4 cumulative IPC: 3.999 (Simulation time: 01 hr 55 min 52 sec)
Heartbeat CPU 6 instructions: 70000001 cycles: 17503608 heartbeat IPC: 4 cumulative IPC: 3.999 (Simulation time: 01 hr 55 min 52 sec)
Heartbeat CPU 14 instructions: 70000001 cycles: 17503612 heartbeat IPC: 4 cumulative IPC: 3.999 (Simulation time: 01 hr 55 min 52 sec)
*** Reached end of trace: (13, "/home/harshraj/COALESCE-Hashed-Perceptron-Cache-Replacement-Policy/simulator/traces/canneal_big1.champsimtrace")
*** Reached end of trace: (1, "/home/harshraj/COALESCE-Hashed-Perceptron-Cache-Replacement-Policy/simulator/traces/canneal_big1.champsimtrace")
Heartbeat CPU 13 instructions: 30000004 cycles: 18387420 heartbeat IPC: 1.76 cumulative IPC: 1.632 (Simulation time: 02 hr 01 min 00 sec)
Heartbeat CPU 1 instructions: 30000004 cycles: 18387421 heartbeat IPC: 1.76 cumulative IPC: 1.632 (Simulation time: 02 hr 01 min 00 sec)
*** Reached end of trace: (9, "/home/harshraj/COALESCE-Hashed-Perceptron-Cache-Replacement-Policy/simulator/traces/canneal_big1.champsimtrace")
Heartbeat CPU 9 instructions: 30000004 cycles: 18390785 heartbeat IPC: 1.759 cumulative IPC: 1.631 (Simulation time: 02 hr 01 min 02 sec)
*** Reached end of trace: (5, "/home/harshraj/COALESCE-Hashed-Perceptron-Cache-Replacement-Policy/simulator/traces/canneal_big1.champsimtrace")
Heartbeat CPU 5 instructions: 30000004 cycles: 18426467 heartbeat IPC: 1.755 cumulative IPC: 1.628 (Simulation time: 02 hr 01 min 15 sec)
*** Reached end of trace: (11, "/home/harshraj/COALESCE-Hashed-Perceptron-Cache-Replacement-Policy/simulator/traces/canneal_big3.champsimtrace")
*** Reached end of trace: (2, "/home/harshraj/COALESCE-Hashed-Perceptron-Cache-Replacement-Policy/simulator/traces/canneal_big2.champsimtrace")
*** Reached end of trace: (7, "/home/harshraj/COALESCE-Hashed-Perceptron-Cache-Replacement-Policy/simulator/traces/canneal_big3.champsimtrace")
*** Reached end of trace: (3, "/home/harshraj/COALESCE-Hashed-Perceptron-Cache-Replacement-Policy/simulator/traces/canneal_big3.champsimtrace")
*** Reached end of trace: (15, "/home/harshraj/COALESCE-Hashed-Perceptron-Cache-Replacement-Policy/simulator/traces/canneal_big3.champsimtrace")
*** Reached end of trace: (10, "/home/harshraj/COALESCE-Hashed-Perceptron-Cache-Replacement-Policy/simulator/traces/canneal_big2.champsimtrace")
*** Reached end of trace: (6, "/home/harshraj/COALESCE-Hashed-Perceptron-Cache-Replacement-Policy/simulator/traces/canneal_big2.champsimtrace")
*** Reached end of trace: (14, "/home/harshraj/COALESCE-Hashed-Perceptron-Cache-Replacement-Policy/simulator/traces/canneal_big2.champsimtrace")
*** Reached end of trace: (8, "/home/harshraj/COALESCE-Hashed-Perceptron-Cache-Replacement-Policy/simulator/traces/canneal_big0.champsimtrace")
Warmup finished CPU 8 instructions: 50000000 cycles: 19333830 cumulative IPC: 2.586 (Simulation time: 02 hr 07 min 42 sec)
Heartbeat CPU 8 instructions: 50000015 cycles: 19333833 heartbeat IPC: 2.603 cumulative IPC: 2.586 (Simulation time: 02 hr 07 min 42 sec)
*** Reached end of trace: (12, "/home/harshraj/COALESCE-Hashed-Perceptron-Cache-Replacement-Policy/simulator/traces/canneal_big0.champsimtrace")
*** Reached end of trace: (0, "/home/harshraj/COALESCE-Hashed-Perceptron-Cache-Replacement-Policy/simulator/traces/canneal_big0.champsimtrace")
Warmup finished CPU 12 instructions: 50000000 cycles: 19343987 cumulative IPC: 2.585 (Simulation time: 02 hr 07 min 47 sec)
Warmup finished CPU 0 instructions: 50000000 cycles: 19343987 cumulative IPC: 2.585 (Simulation time: 02 hr 07 min 47 sec)
Heartbeat CPU 0 instructions: 50000015 cycles: 19343990 heartbeat IPC: 2.602 cumulative IPC: 2.585 (Simulation time: 02 hr 07 min 47 sec)
Heartbeat CPU 12 instructions: 50000015 cycles: 19343990 heartbeat IPC: 2.601 cumulative IPC: 2.585 (Simulation time: 02 hr 07 min 47 sec)
*** Reached end of trace: (4, "/home/harshraj/COALESCE-Hashed-Perceptron-Cache-Replacement-Policy/simulator/traces/canneal_big0.champsimtrace")
Warmup finished CPU 4 instructions: 50000000 cycles: 19389410 cumulative IPC: 2.579 (Simulation time: 02 hr 08 min 08 sec)
Heartbeat CPU 4 instructions: 50000015 cycles: 19389413 heartbeat IPC: 2.595 cumulative IPC: 2.579 (Simulation time: 02 hr 08 min 08 sec)
*** Reached end of trace: (11, "/home/harshraj/COALESCE-Hashed-Perceptron-Cache-Replacement-Policy/simulator/traces/canneal_big3.champsimtrace")
Heartbeat CPU 11 instructions: 80000001 cycles: 20003263 heartbeat IPC: 4 cumulative IPC: 3.999 (Simulation time: 02 hr 12 min 42 sec)
*** Reached end of trace: (2, "/home/harshraj/COALESCE-Hashed-Perceptron-Cache-Replacement-Policy/simulator/traces/canneal_big2.champsimtrace")
*** Reached end of trace: (7, "/home/harshraj/COALESCE-Hashed-Perceptron-Cache-Replacement-Policy/simulator/traces/canneal_big3.champsimtrace")
*** Reached end of trace: (3, "/home/harshraj/COALESCE-Hashed-Perceptron-Cache-Replacement-Policy/simulator/traces/canneal_big3.champsimtrace")
*** Reached end of trace: (15, "/home/harshraj/COALESCE-Hashed-Perceptron-Cache-Replacement-Policy/simulator/traces/canneal_big3.champsimtrace")
Heartbeat CPU 2 instructions: 80000001 cycles: 20003412 heartbeat IPC: 4 cumulative IPC: 3.999 (Simulation time: 02 hr 12 min 42 sec)
Heartbeat CPU 7 instructions: 80000001 cycles: 20003441 heartbeat IPC: 4 cumulative IPC: 3.999 (Simulation time: 02 hr 12 min 42 sec)
Heartbeat CPU 3 instructions: 80000001 cycles: 20003453 heartbeat IPC: 4 cumulative IPC: 3.999 (Simulation time: 02 hr 12 min 42 sec)
Heartbeat CPU 15 instructions: 80000001 cycles: 20003461 heartbeat IPC: 4 cumulative IPC: 3.999 (Simulation time: 02 hr 12 min 42 sec)
*** Reached end of trace: (10, "/home/harshraj/COALESCE-Hashed-Perceptron-Cache-Replacement-Policy/simulator/traces/canneal_big2.champsimtrace")
*** Reached end of trace: (6, "/home/harshraj/COALESCE-Hashed-Perceptron-Cache-Replacement-Policy/simulator/traces/canneal_big2.champsimtrace")
*** Reached end of trace: (14, "/home/harshraj/COALESCE-Hashed-Perceptron-Cache-Replacement-Policy/simulator/traces/canneal_big2.champsimtrace")
Heartbeat CPU 10 instructions: 80000001 cycles: 20003606 heartbeat IPC: 4 cumulative IPC: 3.999 (Simulation time: 02 hr 12 min 42 sec)
Heartbeat CPU 6 instructions: 80000001 cycles: 20003608 heartbeat IPC: 4 cumulative IPC: 3.999 (Simulation time: 02 hr 12 min 42 sec)
Heartbeat CPU 14 instructions: 80000001 cycles: 20003612 heartbeat IPC: 4 cumulative IPC: 3.999 (Simulation time: 02 hr 12 min 42 sec)
*** Reached end of trace: (13, "/home/harshraj/COALESCE-Hashed-Perceptron-Cache-Replacement-Policy/simulator/traces/canneal_big1.champsimtrace")
*** Reached end of trace: (1, "/home/harshraj/COALESCE-Hashed-Perceptron-Cache-Replacement-Policy/simulator/traces/canneal_big1.champsimtrace")
*** Reached end of trace: (9, "/home/harshraj/COALESCE-Hashed-Perceptron-Cache-Replacement-Policy/simulator/traces/canneal_big1.champsimtrace")
*** Reached end of trace: (11, "/home/harshraj/COALESCE-Hashed-Perceptron-Cache-Replacement-Policy/simulator/traces/canneal_big3.champsimtrace")
*** Reached end of trace: (2, "/home/harshraj/COALESCE-Hashed-Perceptron-Cache-Replacement-Policy/simulator/traces/canneal_big2.champsimtrace")
*** Reached end of trace: (7, "/home/harshraj/COALESCE-Hashed-Perceptron-Cache-Replacement-Policy/simulator/traces/canneal_big3.champsimtrace")
*** Reached end of trace: (3, "/home/harshraj/COALESCE-Hashed-Perceptron-Cache-Replacement-Policy/simulator/traces/canneal_big3.champsimtrace")
*** Reached end of trace: (15, "/home/harshraj/COALESCE-Hashed-Perceptron-Cache-Replacement-Policy/simulator/traces/canneal_big3.champsimtrace")
*** Reached end of trace: (10, "/home/harshraj/COALESCE-Hashed-Perceptron-Cache-Replacement-Policy/simulator/traces/canneal_big2.champsimtrace")
*** Reached end of trace: (6, "/home/harshraj/COALESCE-Hashed-Perceptron-Cache-Replacement-Policy/simulator/traces/canneal_big2.champsimtrace")
*** Reached end of trace: (14, "/home/harshraj/COALESCE-Hashed-Perceptron-Cache-Replacement-Policy/simulator/traces/canneal_big2.champsimtrace")
*** Reached end of trace: (8, "/home/harshraj/COALESCE-Hashed-Perceptron-Cache-Replacement-Policy/simulator/traces/canneal_big0.champsimtrace")
*** Reached end of trace: (0, "/home/harshraj/COALESCE-Hashed-Perceptron-Cache-Replacement-Policy/simulator/traces/canneal_big0.champsimtrace")
*** Reached end of trace: (12, "/home/harshraj/COALESCE-Hashed-Perceptron-Cache-Replacement-Policy/simulator/traces/canneal_big0.champsimtrace")
*** Reached end of trace: (5, "/home/harshraj/COALESCE-Hashed-Perceptron-Cache-Replacement-Policy/simulator/traces/canneal_big1.champsimtrace")
*** Reached end of trace: (4, "/home/harshraj/COALESCE-Hashed-Perceptron-Cache-Replacement-Policy/simulator/traces/canneal_big0.champsimtrace")
*** Reached end of trace: (11, "/home/harshraj/COALESCE-Hashed-Perceptron-Cache-Replacement-Policy/simulator/traces/canneal_big3.champsimtrace")
Heartbeat CPU 11 instructions: 90000001 cycles: 22503263 heartbeat IPC: 4 cumulative IPC: 3.999 (Simulation time: 02 hr 28 min 50 sec)
*** Reached end of trace: (2, "/home/harshraj/COALESCE-Hashed-Perceptron-Cache-Replacement-Policy/simulator/traces/canneal_big2.champsimtrace")
*** Reached end of trace: (7, "/home/harshraj/COALESCE-Hashed-Perceptron-Cache-Replacement-Policy/simulator/traces/canneal_big3.champsimtrace")
*** Reached end of trace: (3, "/home/harshraj/COALESCE-Hashed-Perceptron-Cache-Replacement-Policy/simulator/traces/canneal_big3.champsimtrace")
*** Reached end of trace: (15, "/home/harshraj/COALESCE-Hashed-Perceptron-Cache-Replacement-Policy/simulator/traces/canneal_big3.champsimtrace")
Heartbeat CPU 2 instructions: 90000001 cycles: 22503412 heartbeat IPC: 4 cumulative IPC: 3.999 (Simulation time: 02 hr 28 min 50 sec)
Heartbeat CPU 7 instructions: 90000001 cycles: 22503441 heartbeat IPC: 4 cumulative IPC: 3.999 (Simulation time: 02 hr 28 min 50 sec)
Heartbeat CPU 3 instructions: 90000001 cycles: 22503453 heartbeat IPC: 4 cumulative IPC: 3.999 (Simulation time: 02 hr 28 min 50 sec)
Heartbeat CPU 15 instructions: 90000001 cycles: 22503461 heartbeat IPC: 4 cumulative IPC: 3.999 (Simulation time: 02 hr 28 min 50 sec)
*** Reached end of trace: (10, "/home/harshraj/COALESCE-Hashed-Perceptron-Cache-Replacement-Policy/simulator/traces/canneal_big2.champsimtrace")
*** Reached end of trace: (6, "/home/harshraj/COALESCE-Hashed-Perceptron-Cache-Replacement-Policy/simulator/traces/canneal_big2.champsimtrace")
*** Reached end of trace: (14, "/home/harshraj/COALESCE-Hashed-Perceptron-Cache-Replacement-Policy/simulator/traces/canneal_big2.champsimtrace")
Heartbeat CPU 10 instructions: 90000001 cycles: 22503606 heartbeat IPC: 4 cumulative IPC: 3.999 (Simulation time: 02 hr 28 min 50 sec)
Heartbeat CPU 6 instructions: 90000001 cycles: 22503608 heartbeat IPC: 4 cumulative IPC: 3.999 (Simulation time: 02 hr 28 min 50 sec)
Heartbeat CPU 14 instructions: 90000001 cycles: 22503612 heartbeat IPC: 4 cumulative IPC: 3.999 (Simulation time: 02 hr 28 min 50 sec)
*** Reached end of trace: (8, "/home/harshraj/COALESCE-Hashed-Perceptron-Cache-Replacement-Policy/simulator/traces/canneal_big0.champsimtrace")
Heartbeat CPU 8 instructions: 60000018 cycles: 23175674 heartbeat IPC: 2.603 cumulative IPC: 2.589 (Simulation time: 02 hr 32 min 50 sec)
*** Reached end of trace: (12, "/home/harshraj/COALESCE-Hashed-Perceptron-Cache-Replacement-Policy/simulator/traces/canneal_big0.champsimtrace")
*** Reached end of trace: (0, "/home/harshraj/COALESCE-Hashed-Perceptron-Cache-Replacement-Policy/simulator/traces/canneal_big0.champsimtrace")
Heartbeat CPU 0 instructions: 60000018 cycles: 23188121 heartbeat IPC: 2.601 cumulative IPC: 2.588 (Simulation time: 02 hr 32 min 55 sec)
Heartbeat CPU 12 instructions: 60000018 cycles: 23188121 heartbeat IPC: 2.601 cumulative IPC: 2.588 (Simulation time: 02 hr 32 min 55 sec)
*** Reached end of trace: (4, "/home/harshraj/COALESCE-Hashed-Perceptron-Cache-Replacement-Policy/simulator/traces/canneal_big0.champsimtrace")
Heartbeat CPU 4 instructions: 60000018 cycles: 23243272 heartbeat IPC: 2.595 cumulative IPC: 2.581 (Simulation time: 02 hr 33 min 19 sec)
*** Reached end of trace: (11, "/home/harshraj/COALESCE-Hashed-Perceptron-Cache-Replacement-Policy/simulator/traces/canneal_big3.champsimtrace")
*** Reached end of trace: (2, "/home/harshraj/COALESCE-Hashed-Perceptron-Cache-Replacement-Policy/simulator/traces/canneal_big2.champsimtrace")
*** Reached end of trace: (7, "/home/harshraj/COALESCE-Hashed-Perceptron-Cache-Replacement-Policy/simulator/traces/canneal_big3.champsimtrace")
*** Reached end of trace: (3, "/home/harshraj/COALESCE-Hashed-Perceptron-Cache-Replacement-Policy/simulator/traces/canneal_big3.champsimtrace")
*** Reached end of trace: (15, "/home/harshraj/COALESCE-Hashed-Perceptron-Cache-Replacement-Policy/simulator/traces/canneal_big3.champsimtrace")
*** Reached end of trace: (10, "/home/harshraj/COALESCE-Hashed-Perceptron-Cache-Replacement-Policy/simulator/traces/canneal_big2.champsimtrace")
*** Reached end of trace: (6, "/home/harshraj/COALESCE-Hashed-Perceptron-Cache-Replacement-Policy/simulator/traces/canneal_big2.champsimtrace")
*** Reached end of trace: (14, "/home/harshraj/COALESCE-Hashed-Perceptron-Cache-Replacement-Policy/simulator/traces/canneal_big2.champsimtrace")
*** Reached end of trace: (13, "/home/harshraj/COALESCE-Hashed-Perceptron-Cache-Replacement-Policy/simulator/traces/canneal_big1.champsimtrace")
*** Reached end of trace: (1, "/home/harshraj/COALESCE-Hashed-Perceptron-Cache-Replacement-Policy/simulator/traces/canneal_big1.champsimtrace")
Heartbeat CPU 13 instructions: 40000006 cycles: 24069982 heartbeat IPC: 1.76 cumulative IPC: 1.662 (Simulation time: 02 hr 39 min 36 sec)
Heartbeat CPU 1 instructions: 40000006 cycles: 24069990 heartbeat IPC: 1.76 cumulative IPC: 1.662 (Simulation time: 02 hr 39 min 36 sec)
*** Reached end of trace: (9, "/home/harshraj/COALESCE-Hashed-Perceptron-Cache-Replacement-Policy/simulator/traces/canneal_big1.champsimtrace")
Heartbeat CPU 9 instructions: 40000006 cycles: 24075020 heartbeat IPC: 1.759 cumulative IPC: 1.661 (Simulation time: 02 hr 39 min 38 sec)
*** Reached end of trace: (5, "/home/harshraj/COALESCE-Hashed-Perceptron-Cache-Replacement-Policy/simulator/traces/canneal_big1.champsimtrace")
Heartbeat CPU 5 instructions: 40000006 cycles: 24125664 heartbeat IPC: 1.755 cumulative IPC: 1.658 (Simulation time: 02 hr 40 min 00 sec)
*** Reached end of trace: (11, "/home/harshraj/COALESCE-Hashed-Perceptron-Cache-Replacement-Policy/simulator/traces/canneal_big3.champsimtrace")
Heartbeat CPU 11 instructions: 100000001 cycles: 25003263 heartbeat IPC: 4 cumulative IPC: 3.999 (Simulation time: 02 hr 46 min 27 sec)
*** Reached end of trace: (2, "/home/harshraj/COALESCE-Hashed-Perceptron-Cache-Replacement-Policy/simulator/traces/canneal_big2.champsimtrace")
*** Reached end of trace: (7, "/home/harshraj/COALESCE-Hashed-Perceptron-Cache-Replacement-Policy/simulator/traces/canneal_big3.champsimtrace")
*** Reached end of trace: (3, "/home/harshraj/COALESCE-Hashed-Perceptron-Cache-Replacement-Policy/simulator/traces/canneal_big3.champsimtrace")
*** Reached end of trace: (15, "/home/harshraj/COALESCE-Hashed-Perceptron-Cache-Replacement-Policy/simulator/traces/canneal_big3.champsimtrace")
Heartbeat CPU 2 instructions: 100000001 cycles: 25003412 heartbeat IPC: 4 cumulative IPC: 3.999 (Simulation time: 02 hr 46 min 27 sec)
Heartbeat CPU 7 instructions: 100000001 cycles: 25003441 heartbeat IPC: 4 cumulative IPC: 3.999 (Simulation time: 02 hr 46 min 27 sec)
Heartbeat CPU 3 instructions: 100000001 cycles: 25003453 heartbeat IPC: 4 cumulative IPC: 3.999 (Simulation time: 02 hr 46 min 27 sec)
Heartbeat CPU 15 instructions: 100000001 cycles: 25003461 heartbeat IPC: 4 cumulative IPC: 3.999 (Simulation time: 02 hr 46 min 27 sec)
*** Reached end of trace: (10, "/home/harshraj/COALESCE-Hashed-Perceptron-Cache-Replacement-Policy/simulator/traces/canneal_big2.champsimtrace")
*** Reached end of trace: (6, "/home/harshraj/COALESCE-Hashed-Perceptron-Cache-Replacement-Policy/simulator/traces/canneal_big2.champsimtrace")
*** Reached end of trace: (14, "/home/harshraj/COALESCE-Hashed-Perceptron-Cache-Replacement-Policy/simulator/traces/canneal_big2.champsimtrace")
Heartbeat CPU 10 instructions: 100000001 cycles: 25003606 heartbeat IPC: 4 cumulative IPC: 3.999 (Simulation time: 02 hr 46 min 27 sec)
Heartbeat CPU 6 instructions: 100000001 cycles: 25003608 heartbeat IPC: 4 cumulative IPC: 3.999 (Simulation time: 02 hr 46 min 27 sec)
Heartbeat CPU 14 instructions: 100000001 cycles: 25003612 heartbeat IPC: 4 cumulative IPC: 3.999 (Simulation time: 02 hr 46 min 27 sec)
*** Reached end of trace: (8, "/home/harshraj/COALESCE-Hashed-Perceptron-Cache-Replacement-Policy/simulator/traces/canneal_big0.champsimtrace")
*** Reached end of trace: (0, "/home/harshraj/COALESCE-Hashed-Perceptron-Cache-Replacement-Policy/simulator/traces/canneal_big0.champsimtrace")
*** Reached end of trace: (12, "/home/harshraj/COALESCE-Hashed-Perceptron-Cache-Replacement-Policy/simulator/traces/canneal_big0.champsimtrace")
*** Reached end of trace: (4, "/home/harshraj/COALESCE-Hashed-Perceptron-Cache-Replacement-Policy/simulator/traces/canneal_big0.champsimtrace")
*** Reached end of trace: (11, "/home/harshraj/COALESCE-Hashed-Perceptron-Cache-Replacement-Policy/simulator/traces/canneal_big3.champsimtrace")
*** Reached end of trace: (2, "/home/harshraj/COALESCE-Hashed-Perceptron-Cache-Replacement-Policy/simulator/traces/canneal_big2.champsimtrace")
*** Reached end of trace: (7, "/home/harshraj/COALESCE-Hashed-Perceptron-Cache-Replacement-Policy/simulator/traces/canneal_big3.champsimtrace")
*** Reached end of trace: (3, "/home/harshraj/COALESCE-Hashed-Perceptron-Cache-Replacement-Policy/simulator/traces/canneal_big3.champsimtrace")
*** Reached end of trace: (15, "/home/harshraj/COALESCE-Hashed-Perceptron-Cache-Replacement-Policy/simulator/traces/canneal_big3.champsimtrace")
*** Reached end of trace: (10, "/home/harshraj/COALESCE-Hashed-Perceptron-Cache-Replacement-Policy/simulator/traces/canneal_big2.champsimtrace")
*** Reached end of trace: (6, "/home/harshraj/COALESCE-Hashed-Perceptron-Cache-Replacement-Policy/simulator/traces/canneal_big2.champsimtrace")
*** Reached end of trace: (14, "/home/harshraj/COALESCE-Hashed-Perceptron-Cache-Replacement-Policy/simulator/traces/canneal_big2.champsimtrace")
*** Reached end of trace: (13, "/home/harshraj/COALESCE-Hashed-Perceptron-Cache-Replacement-Policy/simulator/traces/canneal_big1.champsimtrace")
*** Reached end of trace: (1, "/home/harshraj/COALESCE-Hashed-Perceptron-Cache-Replacement-Policy/simulator/traces/canneal_big1.champsimtrace")
*** Reached end of trace: (9, "/home/harshraj/COALESCE-Hashed-Perceptron-Cache-Replacement-Policy/simulator/traces/canneal_big1.champsimtrace")
*** Reached end of trace: (5, "/home/harshraj/COALESCE-Hashed-Perceptron-Cache-Replacement-Policy/simulator/traces/canneal_big1.champsimtrace")
*** Reached end of trace: (8, "/home/harshraj/COALESCE-Hashed-Perceptron-Cache-Replacement-Policy/simulator/traces/canneal_big0.champsimtrace")
Heartbeat CPU 8 instructions: 70000021 cycles: 27017505 heartbeat IPC: 2.603 cumulative IPC: 2.591 (Simulation time: 02 hr 59 min 00 sec)
*** Reached end of trace: (12, "/home/harshraj/COALESCE-Hashed-Perceptron-Cache-Replacement-Policy/simulator/traces/canneal_big0.champsimtrace")
*** Reached end of trace: (0, "/home/harshraj/COALESCE-Hashed-Perceptron-Cache-Replacement-Policy/simulator/traces/canneal_big0.champsimtrace")
Heartbeat CPU 0 instructions: 70000021 cycles: 27032765 heartbeat IPC: 2.601 cumulative IPC: 2.589 (Simulation time: 02 hr 59 min 04 sec)
Heartbeat CPU 12 instructions: 70000021 cycles: 27032765 heartbeat IPC: 2.601 cumulative IPC: 2.589 (Simulation time: 02 hr 59 min 04 sec)
*** Reached end of trace: (4, "/home/harshraj/COALESCE-Hashed-Perceptron-Cache-Replacement-Policy/simulator/traces/canneal_big0.champsimtrace")
Heartbeat CPU 4 instructions: 70000021 cycles: 27098085 heartbeat IPC: 2.594 cumulative IPC: 2.583 (Simulation time: 02 hr 59 min 24 sec)
*** Reached end of trace: (11, "/home/harshraj/COALESCE-Hashed-Perceptron-Cache-Replacement-Policy/simulator/traces/canneal_big3.champsimtrace")
Heartbeat CPU 11 instructions: 110000001 cycles: 27503263 heartbeat IPC: 4 cumulative IPC: 4 (Simulation time: 03 hr 01 min 28 sec)
*** Reached end of trace: (2, "/home/harshraj/COALESCE-Hashed-Perceptron-Cache-Replacement-Policy/simulator/traces/canneal_big2.champsimtrace")
*** Reached end of trace: (7, "/home/harshraj/COALESCE-Hashed-Perceptron-Cache-Replacement-Policy/simulator/traces/canneal_big3.champsimtrace")
*** Reached end of trace: (3, "/home/harshraj/COALESCE-Hashed-Perceptron-Cache-Replacement-Policy/simulator/traces/canneal_big3.champsimtrace")
*** Reached end of trace: (15, "/home/harshraj/COALESCE-Hashed-Perceptron-Cache-Replacement-Policy/simulator/traces/canneal_big3.champsimtrace")
Heartbeat CPU 2 instructions: 110000001 cycles: 27503412 heartbeat IPC: 4 cumulative IPC: 4 (Simulation time: 03 hr 01 min 29 sec)
Heartbeat CPU 7 instructions: 110000001 cycles: 27503441 heartbeat IPC: 4 cumulative IPC: 3.999 (Simulation time: 03 hr 01 min 29 sec)
Heartbeat CPU 3 instructions: 110000001 cycles: 27503453 heartbeat IPC: 4 cumulative IPC: 3.999 (Simulation time: 03 hr 01 min 29 sec)
Heartbeat CPU 15 instructions: 110000001 cycles: 27503461 heartbeat IPC: 4 cumulative IPC: 3.999 (Simulation time: 03 hr 01 min 29 sec)
*** Reached end of trace: (10, "/home/harshraj/COALESCE-Hashed-Perceptron-Cache-Replacement-Policy/simulator/traces/canneal_big2.champsimtrace")
*** Reached end of trace: (6, "/home/harshraj/COALESCE-Hashed-Perceptron-Cache-Replacement-Policy/simulator/traces/canneal_big2.champsimtrace")
*** Reached end of trace: (14, "/home/harshraj/COALESCE-Hashed-Perceptron-Cache-Replacement-Policy/simulator/traces/canneal_big2.champsimtrace")
Heartbeat CPU 10 instructions: 110000001 cycles: 27503606 heartbeat IPC: 4 cumulative IPC: 3.999 (Simulation time: 03 hr 01 min 29 sec)
Heartbeat CPU 6 instructions: 110000001 cycles: 27503608 heartbeat IPC: 4 cumulative IPC: 3.999 (Simulation time: 03 hr 01 min 29 sec)
Heartbeat CPU 14 instructions: 110000001 cycles: 27503612 heartbeat IPC: 4 cumulative IPC: 3.999 (Simulation time: 03 hr 01 min 29 sec)
*** Reached end of trace: (11, "/home/harshraj/COALESCE-Hashed-Perceptron-Cache-Replacement-Policy/simulator/traces/canneal_big3.champsimtrace")
*** Reached end of trace: (2, "/home/harshraj/COALESCE-Hashed-Perceptron-Cache-Replacement-Policy/simulator/traces/canneal_big2.champsimtrace")
*** Reached end of trace: (7, "/home/harshraj/COALESCE-Hashed-Perceptron-Cache-Replacement-Policy/simulator/traces/canneal_big3.champsimtrace")
*** Reached end of trace: (3, "/home/harshraj/COALESCE-Hashed-Perceptron-Cache-Replacement-Policy/simulator/traces/canneal_big3.champsimtrace")
*** Reached end of trace: (15, "/home/harshraj/COALESCE-Hashed-Perceptron-Cache-Replacement-Policy/simulator/traces/canneal_big3.champsimtrace")
*** Reached end of trace: (10, "/home/harshraj/COALESCE-Hashed-Perceptron-Cache-Replacement-Policy/simulator/traces/canneal_big2.champsimtrace")
*** Reached end of trace: (6, "/home/harshraj/COALESCE-Hashed-Perceptron-Cache-Replacement-Policy/simulator/traces/canneal_big2.champsimtrace")
*** Reached end of trace: (14, "/home/harshraj/COALESCE-Hashed-Perceptron-Cache-Replacement-Policy/simulator/traces/canneal_big2.champsimtrace")
*** Reached end of trace: (8, "/home/harshraj/COALESCE-Hashed-Perceptron-Cache-Replacement-Policy/simulator/traces/canneal_big0.champsimtrace")
*** Reached end of trace: (12, "/home/harshraj/COALESCE-Hashed-Perceptron-Cache-Replacement-Policy/simulator/traces/canneal_big0.champsimtrace")
*** Reached end of trace: (0, "/home/harshraj/COALESCE-Hashed-Perceptron-Cache-Replacement-Policy/simulator/traces/canneal_big0.champsimtrace")
*** Reached end of trace: (4, "/home/harshraj/COALESCE-Hashed-Perceptron-Cache-Replacement-Policy/simulator/traces/canneal_big0.champsimtrace")
*** Reached end of trace: (13, "/home/harshraj/COALESCE-Hashed-Perceptron-Cache-Replacement-Policy/simulator/traces/canneal_big1.champsimtrace")
*** Reached end of trace: (1, "/home/harshraj/COALESCE-Hashed-Perceptron-Cache-Replacement-Policy/simulator/traces/canneal_big1.champsimtrace")
Warmup finished CPU 13 instructions: 50000000 cycles: 29752004 cumulative IPC: 1.681 (Simulation time: 03 hr 17 min 12 sec)
Warmup finished CPU 1 instructions: 50000000 cycles: 29752008 cumulative IPC: 1.681 (Simulation time: 03 hr 17 min 12 sec)
Heartbeat CPU 13 instructions: 50000008 cycles: 29752023 heartbeat IPC: 1.76 cumulative IPC: 1.681 (Simulation time: 03 hr 17 min 12 sec)
Heartbeat CPU 1 instructions: 50000008 cycles: 29752027 heartbeat IPC: 1.76 cumulative IPC: 1.681 (Simulation time: 03 hr 17 min 12 sec)
*** Reached end of trace: (9, "/home/harshraj/COALESCE-Hashed-Perceptron-Cache-Replacement-Policy/simulator/traces/canneal_big1.champsimtrace")
Warmup finished CPU 9 instructions: 50000000 cycles: 29759925 cumulative IPC: 1.68 (Simulation time: 03 hr 17 min 16 sec)
Heartbeat CPU 9 instructions: 50000008 cycles: 29759942 heartbeat IPC: 1.759 cumulative IPC: 1.68 (Simulation time: 03 hr 17 min 16 sec)
*** Reached end of trace: (5, "/home/harshraj/COALESCE-Hashed-Perceptron-Cache-Replacement-Policy/simulator/traces/canneal_big1.champsimtrace")
Warmup finished CPU 5 instructions: 50000000 cycles: 29825630 cumulative IPC: 1.676 (Simulation time: 03 hr 17 min 45 sec)
Warmup complete CPU 9 instructions: 50111274 cycles: 29825630 cumulative IPC: 1.68 (Simulation time: 03 hr 17 min 45 sec)
Warmup complete CPU 8 instructions: 77496179 cycles: 29825630 cumulative IPC: 2.598 (Simulation time: 03 hr 17 min 45 sec)
Warmup complete CPU 7 instructions: 119288757 cycles: 29825630 cumulative IPC: 4 (Simulation time: 03 hr 17 min 45 sec)
Warmup complete CPU 6 instructions: 119288089 cycles: 29825630 cumulative IPC: 4 (Simulation time: 03 hr 17 min 45 sec)
Warmup complete CPU 5 instructions: 50000000 cycles: 29825630 cumulative IPC: 1.676 (Simulation time: 03 hr 17 min 45 sec)
Warmup complete CPU 4 instructions: 77282469 cycles: 29825630 cumulative IPC: 2.591 (Simulation time: 03 hr 17 min 45 sec)
Warmup complete CPU 3 instructions: 119288709 cycles: 29825630 cumulative IPC: 4 (Simulation time: 03 hr 17 min 45 sec)
Warmup complete CPU 2 instructions: 119288873 cycles: 29825630 cumulative IPC: 4 (Simulation time: 03 hr 17 min 45 sec)
Warmup complete CPU 15 instructions: 119288677 cycles: 29825630 cumulative IPC: 4 (Simulation time: 03 hr 17 min 45 sec)
Warmup complete CPU 14 instructions: 119288073 cycles: 29825630 cumulative IPC: 4 (Simulation time: 03 hr 17 min 45 sec)
Warmup complete CPU 13 instructions: 50122270 cycles: 29825630 cumulative IPC: 1.681 (Simulation time: 03 hr 17 min 45 sec)
Warmup complete CPU 12 instructions: 77456619 cycles: 29825630 cumulative IPC: 2.597 (Simulation time: 03 hr 17 min 45 sec)
Warmup complete CPU 11 instructions: 119289469 cycles: 29825630 cumulative IPC: 4 (Simulation time: 03 hr 17 min 45 sec)
Warmup complete CPU 10 instructions: 119288097 cycles: 29825630 cumulative IPC: 4 (Simulation time: 03 hr 17 min 45 sec)
Warmup complete CPU 1 instructions: 50122270 cycles: 29825630 cumulative IPC: 1.681 (Simulation time: 03 hr 17 min 45 sec)
Warmup complete CPU 0 instructions: 77456189 cycles: 29825630 cumulative IPC: 2.597 (Simulation time: 03 hr 17 min 45 sec)
Heartbeat CPU 5 instructions: 50000008 cycles: 29825837 heartbeat IPC: 1.754 cumulative IPC: 0.03865 (Simulation time: 03 hr 17 min 45 sec)
*** Reached end of trace: (11, "/home/harshraj/COALESCE-Hashed-Perceptron-Cache-Replacement-Policy/simulator/traces/canneal_big3.champsimtrace")
Heartbeat CPU 11 instructions: 120000001 cycles: 30003263 heartbeat IPC: 4 cumulative IPC: 4 (Simulation time: 03 hr 19 min 04 sec)
*** Reached end of trace: (2, "/home/harshraj/COALESCE-Hashed-Perceptron-Cache-Replacement-Policy/simulator/traces/canneal_big2.champsimtrace")
*** Reached end of trace: (7, "/home/harshraj/COALESCE-Hashed-Perceptron-Cache-Replacement-Policy/simulator/traces/canneal_big3.champsimtrace")
*** Reached end of trace: (3, "/home/harshraj/COALESCE-Hashed-Perceptron-Cache-Replacement-Policy/simulator/traces/canneal_big3.champsimtrace")
*** Reached end of trace: (15, "/home/harshraj/COALESCE-Hashed-Perceptron-Cache-Replacement-Policy/simulator/traces/canneal_big3.champsimtrace")
Heartbeat CPU 2 instructions: 120000001 cycles: 30003412 heartbeat IPC: 4 cumulative IPC: 4 (Simulation time: 03 hr 19 min 04 sec)
Heartbeat CPU 7 instructions: 120000001 cycles: 30003441 heartbeat IPC: 4 cumulative IPC: 4 (Simulation time: 03 hr 19 min 04 sec)
Heartbeat CPU 3 instructions: 120000001 cycles: 30003453 heartbeat IPC: 4 cumulative IPC: 4 (Simulation time: 03 hr 19 min 04 sec)
Heartbeat CPU 15 instructions: 120000001 cycles: 30003461 heartbeat IPC: 4 cumulative IPC: 4 (Simulation time: 03 hr 19 min 04 sec)
*** Reached end of trace: (10, "/home/harshraj/COALESCE-Hashed-Perceptron-Cache-Replacement-Policy/simulator/traces/canneal_big2.champsimtrace")
*** Reached end of trace: (6, "/home/harshraj/COALESCE-Hashed-Perceptron-Cache-Replacement-Policy/simulator/traces/canneal_big2.champsimtrace")
*** Reached end of trace: (14, "/home/harshraj/COALESCE-Hashed-Perceptron-Cache-Replacement-Policy/simulator/traces/canneal_big2.champsimtrace")
Heartbeat CPU 10 instructions: 120000001 cycles: 30003606 heartbeat IPC: 4 cumulative IPC: 4 (Simulation time: 03 hr 19 min 04 sec)
Heartbeat CPU 6 instructions: 120000001 cycles: 30003608 heartbeat IPC: 4 cumulative IPC: 4 (Simulation time: 03 hr 19 min 04 sec)
Heartbeat CPU 14 instructions: 120000001 cycles: 30003612 heartbeat IPC: 4 cumulative IPC: 4 (Simulation time: 03 hr 19 min 04 sec)
*** Reached end of trace: (12, "/home/harshraj/COALESCE-Hashed-Perceptron-Cache-Replacement-Policy/simulator/traces/canneal_big0.champsimtrace")
*** Reached end of trace: (0, "/home/harshraj/COALESCE-Hashed-Perceptron-Cache-Replacement-Policy/simulator/traces/canneal_big0.champsimtrace")
*** Reached end of trace: (8, "/home/harshraj/COALESCE-Hashed-Perceptron-Cache-Replacement-Policy/simulator/traces/canneal_big0.champsimtrace")
Heartbeat CPU 0 instructions: 80000021 cycles: 30944290 heartbeat IPC: 2.557 cumulative IPC: 2.274 (Simulation time: 03 hr 25 min 33 sec)
Heartbeat CPU 12 instructions: 80000021 cycles: 30944290 heartbeat IPC: 2.557 cumulative IPC: 2.274 (Simulation time: 03 hr 25 min 33 sec)
Heartbeat CPU 8 instructions: 80000021 cycles: 30944291 heartbeat IPC: 2.547 cumulative IPC: 2.238 (Simulation time: 03 hr 25 min 33 sec)
*** Reached end of trace: (4, "/home/harshraj/COALESCE-Hashed-Perceptron-Cache-Replacement-Policy/simulator/traces/canneal_big0.champsimtrace")
Heartbeat CPU 4 instructions: 80000021 cycles: 30995900 heartbeat IPC: 2.566 cumulative IPC: 2.322 (Simulation time: 03 hr 25 min 55 sec)
*** Reached end of trace: (11, "/home/harshraj/COALESCE-Hashed-Perceptron-Cache-Replacement-Policy/simulator/traces/canneal_big3.champsimtrace")
*** Reached end of trace: (2, "/home/harshraj/COALESCE-Hashed-Perceptron-Cache-Replacement-Policy/simulator/traces/canneal_big2.champsimtrace")
*** Reached end of trace: (7, "/home/harshraj/COALESCE-Hashed-Perceptron-Cache-Replacement-Policy/simulator/traces/canneal_big3.champsimtrace")
*** Reached end of trace: (3, "/home/harshraj/COALESCE-Hashed-Perceptron-Cache-Replacement-Policy/simulator/traces/canneal_big3.champsimtrace")
*** Reached end of trace: (15, "/home/harshraj/COALESCE-Hashed-Perceptron-Cache-Replacement-Policy/simulator/traces/canneal_big3.champsimtrace")
*** Reached end of trace: (10, "/home/harshraj/COALESCE-Hashed-Perceptron-Cache-Replacement-Policy/simulator/traces/canneal_big2.champsimtrace")
*** Reached end of trace: (6, "/home/harshraj/COALESCE-Hashed-Perceptron-Cache-Replacement-Policy/simulator/traces/canneal_big2.champsimtrace")
*** Reached end of trace: (14, "/home/harshraj/COALESCE-Hashed-Perceptron-Cache-Replacement-Policy/simulator/traces/canneal_big2.champsimtrace")
*** Reached end of trace: (11, "/home/harshraj/COALESCE-Hashed-Perceptron-Cache-Replacement-Policy/simulator/traces/canneal_big3.champsimtrace")
Heartbeat CPU 11 instructions: 130000001 cycles: 32503263 heartbeat IPC: 4 cumulative IPC: 4 (Simulation time: 03 hr 34 min 56 sec)
*** Reached end of trace: (2, "/home/harshraj/COALESCE-Hashed-Perceptron-Cache-Replacement-Policy/simulator/traces/canneal_big2.champsimtrace")
*** Reached end of trace: (7, "/home/harshraj/COALESCE-Hashed-Perceptron-Cache-Replacement-Policy/simulator/traces/canneal_big3.champsimtrace")
*** Reached end of trace: (3, "/home/harshraj/COALESCE-Hashed-Perceptron-Cache-Replacement-Policy/simulator/traces/canneal_big3.champsimtrace")
*** Reached end of trace: (15, "/home/harshraj/COALESCE-Hashed-Perceptron-Cache-Replacement-Policy/simulator/traces/canneal_big3.champsimtrace")
Heartbeat CPU 2 instructions: 130000001 cycles: 32503412 heartbeat IPC: 4 cumulative IPC: 4 (Simulation time: 03 hr 34 min 56 sec)
Heartbeat CPU 7 instructions: 130000001 cycles: 32503441 heartbeat IPC: 4 cumulative IPC: 4 (Simulation time: 03 hr 34 min 56 sec)
Heartbeat CPU 3 instructions: 130000001 cycles: 32503453 heartbeat IPC: 4 cumulative IPC: 4 (Simulation time: 03 hr 34 min 56 sec)
Heartbeat CPU 15 instructions: 130000001 cycles: 32503461 heartbeat IPC: 4 cumulative IPC: 4 (Simulation time: 03 hr 34 min 56 sec)
*** Reached end of trace: (10, "/home/harshraj/COALESCE-Hashed-Perceptron-Cache-Replacement-Policy/simulator/traces/canneal_big2.champsimtrace")
*** Reached end of trace: (6, "/home/harshraj/COALESCE-Hashed-Perceptron-Cache-Replacement-Policy/simulator/traces/canneal_big2.champsimtrace")
*** Reached end of trace: (14, "/home/harshraj/COALESCE-Hashed-Perceptron-Cache-Replacement-Policy/simulator/traces/canneal_big2.champsimtrace")
Heartbeat CPU 10 instructions: 130000001 cycles: 32503606 heartbeat IPC: 4 cumulative IPC: 4 (Simulation time: 03 hr 34 min 56 sec)
Heartbeat CPU 6 instructions: 130000001 cycles: 32503608 heartbeat IPC: 4 cumulative IPC: 4 (Simulation time: 03 hr 34 min 56 sec)
Heartbeat CPU 14 instructions: 130000001 cycles: 32503612 heartbeat IPC: 4 cumulative IPC: 4 (Simulation time: 03 hr 34 min 56 sec)
*** Reached end of trace: (12, "/home/harshraj/COALESCE-Hashed-Perceptron-Cache-Replacement-Policy/simulator/traces/canneal_big0.champsimtrace")
*** Reached end of trace: (0, "/home/harshraj/COALESCE-Hashed-Perceptron-Cache-Replacement-Policy/simulator/traces/canneal_big0.champsimtrace")
*** Reached end of trace: (8, "/home/harshraj/COALESCE-Hashed-Perceptron-Cache-Replacement-Policy/simulator/traces/canneal_big0.champsimtrace")
*** Reached end of trace: (4, "/home/harshraj/COALESCE-Hashed-Perceptron-Cache-Replacement-Policy/simulator/traces/canneal_big0.champsimtrace")
*** Reached end of trace: (11, "/home/harshraj/COALESCE-Hashed-Perceptron-Cache-Replacement-Policy/simulator/traces/canneal_big3.champsimtrace")
*** Reached end of trace: (2, "/home/harshraj/COALESCE-Hashed-Perceptron-Cache-Replacement-Policy/simulator/traces/canneal_big2.champsimtrace")
*** Reached end of trace: (7, "/home/harshraj/COALESCE-Hashed-Perceptron-Cache-Replacement-Policy/simulator/traces/canneal_big3.champsimtrace")
*** Reached end of trace: (3, "/home/harshraj/COALESCE-Hashed-Perceptron-Cache-Replacement-Policy/simulator/traces/canneal_big3.champsimtrace")
*** Reached end of trace: (15, "/home/harshraj/COALESCE-Hashed-Perceptron-Cache-Replacement-Policy/simulator/traces/canneal_big3.champsimtrace")
*** Reached end of trace: (10, "/home/harshraj/COALESCE-Hashed-Perceptron-Cache-Replacement-Policy/simulator/traces/canneal_big2.champsimtrace")
*** Reached end of trace: (6, "/home/harshraj/COALESCE-Hashed-Perceptron-Cache-Replacement-Policy/simulator/traces/canneal_big2.champsimtrace")
*** Reached end of trace: (14, "/home/harshraj/COALESCE-Hashed-Perceptron-Cache-Replacement-Policy/simulator/traces/canneal_big2.champsimtrace")
*** Reached end of trace: (11, "/home/harshraj/COALESCE-Hashed-Perceptron-Cache-Replacement-Policy/simulator/traces/canneal_big3.champsimtrace")
Heartbeat CPU 11 instructions: 140000001 cycles: 35003263 heartbeat IPC: 4 cumulative IPC: 4 (Simulation time: 03 hr 51 min 32 sec)
*** Reached end of trace: (2, "/home/harshraj/COALESCE-Hashed-Perceptron-Cache-Replacement-Policy/simulator/traces/canneal_big2.champsimtrace")
*** Reached end of trace: (7, "/home/harshraj/COALESCE-Hashed-Perceptron-Cache-Replacement-Policy/simulator/traces/canneal_big3.champsimtrace")
*** Reached end of trace: (3, "/home/harshraj/COALESCE-Hashed-Perceptron-Cache-Replacement-Policy/simulator/traces/canneal_big3.champsimtrace")
*** Reached end of trace: (15, "/home/harshraj/COALESCE-Hashed-Perceptron-Cache-Replacement-Policy/simulator/traces/canneal_big3.champsimtrace")
Heartbeat CPU 2 instructions: 140000001 cycles: 35003412 heartbeat IPC: 4 cumulative IPC: 4 (Simulation time: 03 hr 51 min 32 sec)
Heartbeat CPU 7 instructions: 140000001 cycles: 35003441 heartbeat IPC: 4 cumulative IPC: 4 (Simulation time: 03 hr 51 min 32 sec)
Heartbeat CPU 3 instructions: 140000001 cycles: 35003453 heartbeat IPC: 4 cumulative IPC: 4 (Simulation time: 03 hr 51 min 32 sec)
Heartbeat CPU 15 instructions: 140000001 cycles: 35003461 heartbeat IPC: 4 cumulative IPC: 4 (Simulation time: 03 hr 51 min 32 sec)
*** Reached end of trace: (10, "/home/harshraj/COALESCE-Hashed-Perceptron-Cache-Replacement-Policy/simulator/traces/canneal_big2.champsimtrace")
*** Reached end of trace: (6, "/home/harshraj/COALESCE-Hashed-Perceptron-Cache-Replacement-Policy/simulator/traces/canneal_big2.champsimtrace")
*** Reached end of trace: (14, "/home/harshraj/COALESCE-Hashed-Perceptron-Cache-Replacement-Policy/simulator/traces/canneal_big2.champsimtrace")
Heartbeat CPU 10 instructions: 140000001 cycles: 35003606 heartbeat IPC: 4 cumulative IPC: 4 (Simulation time: 03 hr 51 min 32 sec)
Heartbeat CPU 6 instructions: 140000001 cycles: 35003608 heartbeat IPC: 4 cumulative IPC: 4 (Simulation time: 03 hr 51 min 32 sec)
Heartbeat CPU 14 instructions: 140000001 cycles: 35003612 heartbeat IPC: 4 cumulative IPC: 4 (Simulation time: 03 hr 51 min 32 sec)
*** Reached end of trace: (12, "/home/harshraj/COALESCE-Hashed-Perceptron-Cache-Replacement-Policy/simulator/traces/canneal_big0.champsimtrace")
*** Reached end of trace: (0, "/home/harshraj/COALESCE-Hashed-Perceptron-Cache-Replacement-Policy/simulator/traces/canneal_big0.champsimtrace")
*** Reached end of trace: (8, "/home/harshraj/COALESCE-Hashed-Perceptron-Cache-Replacement-Policy/simulator/traces/canneal_big0.champsimtrace")
Heartbeat CPU 0 instructions: 90000022 cycles: 35541581 heartbeat IPC: 2.175 cumulative IPC: 2.195 (Simulation time: 03 hr 54 min 21 sec)
Heartbeat CPU 12 instructions: 90000022 cycles: 35541581 heartbeat IPC: 2.175 cumulative IPC: 2.194 (Simulation time: 03 hr 54 min 21 sec)
Heartbeat CPU 8 instructions: 90000022 cycles: 35541736 heartbeat IPC: 2.175 cumulative IPC: 2.187 (Simulation time: 03 hr 54 min 21 sec)
*** Reached end of trace: (4, "/home/harshraj/COALESCE-Hashed-Perceptron-Cache-Replacement-Policy/simulator/traces/canneal_big0.champsimtrace")
Heartbeat CPU 4 instructions: 90000022 cycles: 35550871 heartbeat IPC: 2.195 cumulative IPC: 2.221 (Simulation time: 03 hr 54 min 24 sec)
*** Reached end of trace: (11, "/home/harshraj/COALESCE-Hashed-Perceptron-Cache-Replacement-Policy/simulator/traces/canneal_big3.champsimtrace")
*** Reached end of trace: (2, "/home/harshraj/COALESCE-Hashed-Perceptron-Cache-Replacement-Policy/simulator/traces/canneal_big2.champsimtrace")
*** Reached end of trace: (7, "/home/harshraj/COALESCE-Hashed-Perceptron-Cache-Replacement-Policy/simulator/traces/canneal_big3.champsimtrace")
*** Reached end of trace: (3, "/home/harshraj/COALESCE-Hashed-Perceptron-Cache-Replacement-Policy/simulator/traces/canneal_big3.champsimtrace")
*** Reached end of trace: (15, "/home/harshraj/COALESCE-Hashed-Perceptron-Cache-Replacement-Policy/simulator/traces/canneal_big3.champsimtrace")
*** Reached end of trace: (10, "/home/harshraj/COALESCE-Hashed-Perceptron-Cache-Replacement-Policy/simulator/traces/canneal_big2.champsimtrace")
*** Reached end of trace: (6, "/home/harshraj/COALESCE-Hashed-Perceptron-Cache-Replacement-Policy/simulator/traces/canneal_big2.champsimtrace")
*** Reached end of trace: (14, "/home/harshraj/COALESCE-Hashed-Perceptron-Cache-Replacement-Policy/simulator/traces/canneal_big2.champsimtrace")
*** Reached end of trace: (11, "/home/harshraj/COALESCE-Hashed-Perceptron-Cache-Replacement-Policy/simulator/traces/canneal_big3.champsimtrace")
Heartbeat CPU 11 instructions: 150000001 cycles: 37503263 heartbeat IPC: 4 cumulative IPC: 4 (Simulation time: 04 hr 05 min 52 sec)
*** Reached end of trace: (2, "/home/harshraj/COALESCE-Hashed-Perceptron-Cache-Replacement-Policy/simulator/traces/canneal_big2.champsimtrace")
*** Reached end of trace: (7, "/home/harshraj/COALESCE-Hashed-Perceptron-Cache-Replacement-Policy/simulator/traces/canneal_big3.champsimtrace")
*** Reached end of trace: (3, "/home/harshraj/COALESCE-Hashed-Perceptron-Cache-Replacement-Policy/simulator/traces/canneal_big3.champsimtrace")
*** Reached end of trace: (15, "/home/harshraj/COALESCE-Hashed-Perceptron-Cache-Replacement-Policy/simulator/traces/canneal_big3.champsimtrace")
Heartbeat CPU 2 instructions: 150000001 cycles: 37503412 heartbeat IPC: 4 cumulative IPC: 4 (Simulation time: 04 hr 05 min 52 sec)
Heartbeat CPU 7 instructions: 150000001 cycles: 37503441 heartbeat IPC: 4 cumulative IPC: 4 (Simulation time: 04 hr 05 min 52 sec)
Heartbeat CPU 3 instructions: 150000001 cycles: 37503453 heartbeat IPC: 4 cumulative IPC: 4 (Simulation time: 04 hr 05 min 52 sec)
Heartbeat CPU 15 instructions: 150000001 cycles: 37503461 heartbeat IPC: 4 cumulative IPC: 4 (Simulation time: 04 hr 05 min 52 sec)
*** Reached end of trace: (10, "/home/harshraj/COALESCE-Hashed-Perceptron-Cache-Replacement-Policy/simulator/traces/canneal_big2.champsimtrace")
*** Reached end of trace: (6, "/home/harshraj/COALESCE-Hashed-Perceptron-Cache-Replacement-Policy/simulator/traces/canneal_big2.champsimtrace")
*** Reached end of trace: (14, "/home/harshraj/COALESCE-Hashed-Perceptron-Cache-Replacement-Policy/simulator/traces/canneal_big2.champsimtrace")
Heartbeat CPU 10 instructions: 150000001 cycles: 37503606 heartbeat IPC: 4 cumulative IPC: 4 (Simulation time: 04 hr 05 min 52 sec)
Heartbeat CPU 6 instructions: 150000001 cycles: 37503608 heartbeat IPC: 4 cumulative IPC: 4 (Simulation time: 04 hr 05 min 52 sec)
Heartbeat CPU 14 instructions: 150000001 cycles: 37503612 heartbeat IPC: 4 cumulative IPC: 4 (Simulation time: 04 hr 05 min 52 sec)
*** Reached end of trace: (12, "/home/harshraj/COALESCE-Hashed-Perceptron-Cache-Replacement-Policy/simulator/traces/canneal_big0.champsimtrace")
*** Reached end of trace: (0, "/home/harshraj/COALESCE-Hashed-Perceptron-Cache-Replacement-Policy/simulator/traces/canneal_big0.champsimtrace")
*** Reached end of trace: (8, "/home/harshraj/COALESCE-Hashed-Perceptron-Cache-Replacement-Policy/simulator/traces/canneal_big0.champsimtrace")
*** Reached end of trace: (4, "/home/harshraj/COALESCE-Hashed-Perceptron-Cache-Replacement-Policy/simulator/traces/canneal_big0.champsimtrace")
*** Reached end of trace: (11, "/home/harshraj/COALESCE-Hashed-Perceptron-Cache-Replacement-Policy/simulator/traces/canneal_big3.champsimtrace")
*** Reached end of trace: (2, "/home/harshraj/COALESCE-Hashed-Perceptron-Cache-Replacement-Policy/simulator/traces/canneal_big2.champsimtrace")
*** Reached end of trace: (7, "/home/harshraj/COALESCE-Hashed-Perceptron-Cache-Replacement-Policy/simulator/traces/canneal_big3.champsimtrace")
*** Reached end of trace: (3, "/home/harshraj/COALESCE-Hashed-Perceptron-Cache-Replacement-Policy/simulator/traces/canneal_big3.champsimtrace")
[...]
cpu12->cpu12_L2C TRANSLATION  ACCESS:          0 HIT:          0 MISS:          0 MSHR_MERGE:          0
cpu12->cpu12_L2C PREFETCH REQUESTED:          0 ISSUED:          0 USEFUL:          0 USELESS:          0
cpu12->cpu12_L2C AVERAGE MISS LATENCY: 95.49 cycles
cpu12_L2C COHERENCE INVALIDATIONS:          0
cpu12_L2C COHERENCE WRITE-HIT OTHER-SHARER EVENTS:          0
cpu12->cpu12_L1I TOTAL        ACCESS:  150331000 HIT:  150002302 MISS:     328698 MSHR_MERGE:      87104
cpu12->cpu12_L1I LOAD         ACCESS:  150331000 HIT:  150002302 MISS:     328698 MSHR_MERGE:      87104
cpu12->cpu12_L1I RFO          ACCESS:          0 HIT:          0 MISS:          0 MSHR_MERGE:          0
cpu12->cpu12_L1I PREFETCH     ACCESS:          0 HIT:          0 MISS:          0 MSHR_MERGE:          0
cpu12->cpu12_L1I WRITE        ACCESS:          0 HIT:          0 MISS:          0 MSHR_MERGE:          0
cpu12->cpu12_L1I TRANSLATION  ACCESS:          0 HIT:          0 MISS:          0 MSHR_MERGE:          0
cpu12->cpu12_L1I PREFETCH REQUESTED:          0 ISSUED:          0 USEFUL:          0 USELESS:          0
cpu12->cpu12_L1I AVERAGE MISS LATENCY: 50.25 cycles
cpu12_L1I COHERENCE INVALIDATIONS:          0
cpu12_L1I COHERENCE WRITE-HIT OTHER-SHARER EVENTS:          0
cpu12->cpu12_L1D TOTAL        ACCESS:  178375997 HIT:  156195786 MISS:   22180211 MSHR_MERGE:   16251298
cpu12->cpu12_L1D LOAD         ACCESS:   16599832 HIT:   14517786 MISS:    2082046 MSHR_MERGE:     635300
cpu12->cpu12_L1D RFO          ACCESS:          0 HIT:          0 MISS:          0 MSHR_MERGE:          0
cpu12->cpu12_L1D PREFETCH     ACCESS:          0 HIT:          0 MISS:          0 MSHR_MERGE:          0
cpu12->cpu12_L1D WRITE        ACCESS:  161776165 HIT:  141678000 MISS:   20098165 MSHR_MERGE:   15615998
cpu12->cpu12_L1D TRANSLATION  ACCESS:          0 HIT:          0 MISS:          0 MSHR_MERGE:          0
cpu12->cpu12_L1D PREFETCH REQUESTED:          0 ISSUED:          0 USEFUL:          0 USELESS:          0
cpu12->cpu12_L1D AVERAGE MISS LATENCY: 94.97 cycles
cpu12_L1D COHERENCE INVALIDATIONS:          0
cpu12_L1D COHERENCE WRITE-HIT OTHER-SHARER EVENTS:          0
cpu12->cpu12_ITLB TOTAL        ACCESS:  125186889 HIT:  125135789 MISS:      51100 MSHR_MERGE:      20660
cpu12->cpu12_ITLB LOAD         ACCESS:  125186889 HIT:  125135789 MISS:      51100 MSHR_MERGE:      20660
cpu12->cpu12_ITLB RFO          ACCESS:          0 HIT:          0 MISS:          0 MSHR_MERGE:          0
cpu12->cpu12_ITLB PREFETCH     ACCESS:          0 HIT:          0 MISS:          0 MSHR_MERGE:          0
cpu12->cpu12_ITLB WRITE        ACCESS:          0 HIT:          0 MISS:          0 MSHR_MERGE:          0
cpu12->cpu12_ITLB TRANSLATION  ACCESS:          0 HIT:          0 MISS:          0 MSHR_MERGE:          0
cpu12->cpu12_ITLB PREFETCH REQUESTED:          0 ISSUED:          0 USEFUL:          0 USELESS:          0
cpu12->cpu12_ITLB AVERAGE MISS LATENCY: 4.003 cycles
cpu12_ITLB COHERENCE INVALIDATIONS:          0
cpu12_ITLB COHERENCE WRITE-HIT OTHER-SHARER EVENTS:          0
cpu12->cpu12_DTLB TOTAL        ACCESS:  148345681 HIT:  147958525 MISS:     387156 MSHR_MERGE:      84326
cpu12->cpu12_DTLB LOAD         ACCESS:  148345681 HIT:  147958525 MISS:     387156 MSHR_MERGE:      84326
cpu12->cpu12_DTLB RFO          ACCESS:          0 HIT:          0 MISS:          0 MSHR_MERGE:          0
cpu12->cpu12_DTLB PREFETCH     ACCESS:          0 HIT:          0 MISS:          0 MSHR_MERGE:          0
cpu12->cpu12_DTLB WRITE        ACCESS:          0 HIT:          0 MISS:          0 MSHR_MERGE:          0
cpu12->cpu12_DTLB TRANSLATION  ACCESS:          0 HIT:          0 MISS:          0 MSHR_MERGE:          0
cpu12->cpu12_DTLB PREFETCH REQUESTED:          0 ISSUED:          0 USEFUL:          0 USELESS:          0
cpu12->cpu12_DTLB AVERAGE MISS LATENCY: 4 cycles
cpu12_DTLB COHERENCE INVALIDATIONS:          0
cpu12_DTLB COHERENCE WRITE-HIT OTHER-SHARER EVENTS:          0
cpu11_STLB COHERENCE INVALIDATIONS:          0
cpu11_STLB COHERENCE WRITE-HIT OTHER-SHARER EVENTS:          0
cpu11_L2C COHERENCE INVALIDATIONS:          0
cpu11_L2C COHERENCE WRITE-HIT OTHER-SHARER EVENTS:          0
cpu11->cpu11_L1I TOTAL        ACCESS:  189466826 HIT:  189466826 MISS:          0 MSHR_MERGE:          0
cpu11->cpu11_L1I LOAD         ACCESS:  189466826 HIT:  189466826 MISS:          0 MSHR_MERGE:          0
cpu11->cpu11_L1I RFO          ACCESS:          0 HIT:          0 MISS:          0 MSHR_MERGE:          0
cpu11->cpu11_L1I PREFETCH     ACCESS:          0 HIT:          0 MISS:          0 MSHR_MERGE:          0
cpu11->cpu11_L1I WRITE        ACCESS:          0 HIT:          0 MISS:          0 MSHR_MERGE:          0
cpu11->cpu11_L1I TRANSLATION  ACCESS:          0 HIT:          0 MISS:          0 MSHR_MERGE:          0
cpu11->cpu11_L1I PREFETCH REQUESTED:          0 ISSUED:          0 USEFUL:          0 USELESS:          0
cpu11->cpu11_L1I AVERAGE MISS LATENCY: - cycles
cpu11_L1I COHERENCE INVALIDATIONS:          0
cpu11_L1I COHERENCE WRITE-HIT OTHER-SHARER EVENTS:          0
cpu11_L1D COHERENCE INVALIDATIONS:          0
cpu11_L1D COHERENCE WRITE-HIT OTHER-SHARER EVENTS:          0
cpu11->cpu11_ITLB TOTAL        ACCESS:  158135602 HIT:  158135602 MISS:          0 MSHR_MERGE:          0
cpu11->cpu11_ITLB LOAD         ACCESS:  158135602 HIT:  158135602 MISS:          0 MSHR_MERGE:          0
cpu11->cpu11_ITLB RFO          ACCESS:          0 HIT:          0 MISS:          0 MSHR_MERGE:          0
cpu11->cpu11_ITLB PREFETCH     ACCESS:          0 HIT:          0 MISS:          0 MSHR_MERGE:          0
cpu11->cpu11_ITLB WRITE        ACCESS:          0 HIT:          0 MISS:          0 MSHR_MERGE:          0
cpu11->cpu11_ITLB TRANSLATION  ACCESS:          0 HIT:          0 MISS:          0 MSHR_MERGE:          0
cpu11->cpu11_ITLB PREFETCH REQUESTED:          0 ISSUED:          0 USEFUL:          0 USELESS:          0
cpu11->cpu11_ITLB AVERAGE MISS LATENCY: - cycles
cpu11_ITLB COHERENCE INVALIDATIONS:          0
cpu11_ITLB COHERENCE WRITE-HIT OTHER-SHARER EVENTS:          0
cpu11_DTLB COHERENCE INVALIDATIONS:          0
cpu11_DTLB COHERENCE WRITE-HIT OTHER-SHARER EVENTS:          0
cpu10_STLB COHERENCE INVALIDATIONS:          0
cpu10_STLB COHERENCE WRITE-HIT OTHER-SHARER EVENTS:          0
cpu10_L2C COHERENCE INVALIDATIONS:          0
cpu10_L2C COHERENCE WRITE-HIT OTHER-SHARER EVENTS:          0
cpu10->cpu10_L1I TOTAL        ACCESS:  189620342 HIT:  189620342 MISS:          0 MSHR_MERGE:          0
cpu10->cpu10_L1I LOAD         ACCESS:  189620342 HIT:  189620342 MISS:          0 MSHR_MERGE:          0
cpu10->cpu10_L1I RFO          ACCESS:          0 HIT:          0 MISS:          0 MSHR_MERGE:          0
cpu10->cpu10_L1I PREFETCH     ACCESS:          0 HIT:          0 MISS:          0 MSHR_MERGE:          0
cpu10->cpu10_L1I WRITE        ACCESS:          0 HIT:          0 MISS:          0 MSHR_MERGE:          0
cpu10->cpu10_L1I TRANSLATION  ACCESS:          0 HIT:          0 MISS:          0 MSHR_MERGE:          0
cpu10->cpu10_L1I PREFETCH REQUESTED:          0 ISSUED:          0 USEFUL:          0 USELESS:          0
cpu10->cpu10_L1I AVERAGE MISS LATENCY: - cycles
cpu10_L1I COHERENCE INVALIDATIONS:          0
cpu10_L1I COHERENCE WRITE-HIT OTHER-SHARER EVENTS:          0
cpu10_L1D COHERENCE INVALIDATIONS:          0
cpu10_L1D COHERENCE WRITE-HIT OTHER-SHARER EVENTS:          0
cpu10->cpu10_ITLB TOTAL        ACCESS:  158216406 HIT:  158216406 MISS:          0 MSHR_MERGE:          0
cpu10->cpu10_ITLB LOAD         ACCESS:  158216406 HIT:  158216406 MISS:          0 MSHR_MERGE:          0
cpu10->cpu10_ITLB RFO          ACCESS:          0 HIT:          0 MISS:          0 MSHR_MERGE:          0
cpu10->cpu10_ITLB PREFETCH     ACCESS:          0 HIT:          0 MISS:          0 MSHR_MERGE:          0
cpu10->cpu10_ITLB WRITE        ACCESS:          0 HIT:          0 MISS:          0 MSHR_MERGE:          0
cpu10->cpu10_ITLB TRANSLATION  ACCESS:          0 HIT:          0 MISS:          0 MSHR_MERGE:          0
cpu10->cpu10_ITLB PREFETCH REQUESTED:          0 ISSUED:          0 USEFUL:          0 USELESS:          0
cpu10->cpu10_ITLB AVERAGE MISS LATENCY: - cycles
cpu10_ITLB COHERENCE INVALIDATIONS:          0
cpu10_ITLB COHERENCE WRITE-HIT OTHER-SHARER EVENTS:          0
cpu10_DTLB COHERENCE INVALIDATIONS:          0
cpu10_DTLB COHERENCE WRITE-HIT OTHER-SHARER EVENTS:          0
cpu0->cpu0_STLB TOTAL        ACCESS:     333253 HIT:     333253 MISS:          0 MSHR_MERGE:          0
cpu0->cpu0_STLB LOAD         ACCESS:     333253 HIT:     333253 MISS:          0 MSHR_MERGE:          0
cpu0->cpu0_STLB RFO          ACCESS:          0 HIT:          0 MISS:          0 MSHR_MERGE:          0
cpu0->cpu0_STLB PREFETCH     ACCESS:          0 HIT:          0 MISS:          0 MSHR_MERGE:          0
cpu0->cpu0_STLB WRITE        ACCESS:          0 HIT:          0 MISS:          0 MSHR_MERGE:          0
cpu0->cpu0_STLB TRANSLATION  ACCESS:          0 HIT:          0 MISS:          0 MSHR_MERGE:          0
cpu0->cpu0_STLB PREFETCH REQUESTED:          0 ISSUED:          0 USEFUL:          0 USELESS:          0
cpu0->cpu0_STLB AVERAGE MISS LATENCY: - cycles
cpu0_STLB COHERENCE INVALIDATIONS:          0
cpu0_STLB COHERENCE WRITE-HIT OTHER-SHARER EVENTS:          0
cpu0->cpu0_L2C TOTAL        ACCESS:   10709752 HIT:    5196295 MISS:    5513457 MSHR_MERGE:          0
cpu0->cpu0_L2C LOAD         ACCESS:    1688347 HIT:     570826 MISS:    1117521 MSHR_MERGE:          0
cpu0->cpu0_L2C RFO          ACCESS:    4476093 HIT:      80157 MISS:    4395936 MSHR_MERGE:          0
cpu0->cpu0_L2C PREFETCH     ACCESS:          0 HIT:          0 MISS:          0 MSHR_MERGE:          0
cpu0->cpu0_L2C WRITE        ACCESS:    4545312 HIT:    4545312 MISS:          0 MSHR_MERGE:          0
cpu0->cpu0_L2C TRANSLATION  ACCESS:          0 HIT:          0 MISS:          0 MSHR_MERGE:          0
cpu0->cpu0_L2C PREFETCH REQUESTED:          0 ISSUED:          0 USEFUL:          0 USELESS:          0
cpu0->cpu0_L2C AVERAGE MISS LATENCY: 95.52 cycles
cpu0_L2C COHERENCE INVALIDATIONS:          0
cpu0_L2C COHERENCE WRITE-HIT OTHER-SHARER EVENTS:          0
cpu0->cpu0_L1I TOTAL        ACCESS:  150331139 HIT:  150002532 MISS:     328607 MSHR_MERGE:      87013
cpu0->cpu0_L1I LOAD         ACCESS:  150331139 HIT:  150002532 MISS:     328607 MSHR_MERGE:      87013
cpu0->cpu0_L1I RFO          ACCESS:          0 HIT:          0 MISS:          0 MSHR_MERGE:          0
cpu0->cpu0_L1I PREFETCH     ACCESS:          0 HIT:          0 MISS:          0 MSHR_MERGE:          0
cpu0->cpu0_L1I WRITE        ACCESS:          0 HIT:          0 MISS:          0 MSHR_MERGE:          0
cpu0->cpu0_L1I TRANSLATION  ACCESS:          0 HIT:          0 MISS:          0 MSHR_MERGE:          0
cpu0->cpu0_L1I PREFETCH REQUESTED:          0 ISSUED:          0 USEFUL:          0 USELESS:          0
cpu0->cpu0_L1I AVERAGE MISS LATENCY: 50.14 cycles
cpu0_L1I COHERENCE INVALIDATIONS:          0
cpu0_L1I COHERENCE WRITE-HIT OTHER-SHARER EVENTS:          0
cpu0->cpu0_L1D TOTAL        ACCESS:  178374968 HIT:  156190870 MISS:   22184098 MSHR_MERGE:   16255220
cpu0->cpu0_L1D LOAD         ACCESS:   16600085 HIT:   14518267 MISS:    2081818 MSHR_MERGE:     635065
cpu0->cpu0_L1D RFO          ACCESS:          0 HIT:          0 MISS:          0 MSHR_MERGE:          0
cpu0->cpu0_L1D PREFETCH     ACCESS:          0 HIT:          0 MISS:          0 MSHR_MERGE:          0
cpu0->cpu0_L1D WRITE        ACCESS:  161774883 HIT:  141672603 MISS:   20102280 MSHR_MERGE:   15620155
cpu0->cpu0_L1D TRANSLATION  ACCESS:          0 HIT:          0 MISS:          0 MSHR_MERGE:          0
cpu0->cpu0_L1D PREFETCH REQUESTED:          0 ISSUED:          0 USEFUL:          0 USELESS:          0
cpu0->cpu0_L1D AVERAGE MISS LATENCY: 94.99 cycles
cpu0_L1D COHERENCE INVALIDATIONS:          0
cpu0_L1D COHERENCE WRITE-HIT OTHER-SHARER EVENTS:          0
cpu0->cpu0_ITLB TOTAL        ACCESS:  125186991 HIT:  125135691 MISS:      51300 MSHR_MERGE:      20860
cpu0->cpu0_ITLB LOAD         ACCESS:  125186991 HIT:  125135691 MISS:      51300 MSHR_MERGE:      20860
cpu0->cpu0_ITLB RFO          ACCESS:          0 HIT:          0 MISS:          0 MSHR_MERGE:          0
cpu0->cpu0_ITLB PREFETCH     ACCESS:          0 HIT:          0 MISS:          0 MSHR_MERGE:          0
cpu0->cpu0_ITLB WRITE        ACCESS:          0 HIT:          0 MISS:          0 MSHR_MERGE:          0
cpu0->cpu0_ITLB TRANSLATION  ACCESS:          0 HIT:          0 MISS:          0 MSHR_MERGE:          0
cpu0->cpu0_ITLB PREFETCH REQUESTED:          0 ISSUED:          0 USEFUL:          0 USELESS:          0
cpu0->cpu0_ITLB AVERAGE MISS LATENCY: 4.002 cycles
cpu0_ITLB COHERENCE INVALIDATIONS:          0
cpu0_ITLB COHERENCE WRITE-HIT OTHER-SHARER EVENTS:          0
cpu0->cpu0_DTLB TOTAL        ACCESS:  148344739 HIT:  147957634 MISS:     387105 MSHR_MERGE:      84292
cpu0->cpu0_DTLB LOAD         ACCESS:  148344739 HIT:  147957634 MISS:     387105 MSHR_MERGE:      84292
cpu0->cpu0_DTLB RFO          ACCESS:          0 HIT:          0 MISS:          0 MSHR_MERGE:          0
cpu0->cpu0_DTLB PREFETCH     ACCESS:          0 HIT:          0 MISS:          0 MSHR_MERGE:          0
cpu0->cpu0_DTLB WRITE        ACCESS:          0 HIT:          0 MISS:          0 MSHR_MERGE:          0
cpu0->cpu0_DTLB TRANSLATION  ACCESS:          0 HIT:          0 MISS:          0 MSHR_MERGE:          0
cpu0->cpu0_DTLB PREFETCH REQUESTED:          0 ISSUED:          0 USEFUL:          0 USELESS:          0
cpu0->cpu0_DTLB AVERAGE MISS LATENCY: 4 cycles
cpu0_DTLB COHERENCE INVALIDATIONS:          0
cpu0_DTLB COHERENCE WRITE-HIT OTHER-SHARER EVENTS:          0
cpu0->LLC TOTAL        ACCESS:    9957550 HIT:    8086855 MISS:    1870695 MSHR_MERGE:     359153
cpu0->LLC LOAD         ACCESS:    1117521 HIT:     999206 MISS:     118315 MSHR_MERGE:      49767
cpu0->LLC RFO          ACCESS:    4395936 HIT:    2907931 MISS:    1488005 MSHR_MERGE:     309386
cpu0->LLC PREFETCH     ACCESS:          0 HIT:          0 MISS:          0 MSHR_MERGE:          0
cpu0->LLC WRITE        ACCESS:    4444093 HIT:    4179718 MISS:     264375 MSHR_MERGE:          0
cpu0->LLC TRANSLATION  ACCESS:          0 HIT:          0 MISS:          0 MSHR_MERGE:          0
cpu0->LLC PREFETCH REQUESTED:          0 ISSUED:          0 USEFUL:          0 USELESS:          0
cpu0->LLC AVERAGE MISS LATENCY: 2672 cycles
cpu1->LLC TOTAL        ACCESS:    1940326 HIT:     295126 MISS:    1645200 MSHR_MERGE:    1016099
cpu1->LLC LOAD         ACCESS:    1552740 HIT:     295054 MISS:    1257686 MSHR_MERGE:    1016099
cpu1->LLC RFO          ACCESS:          0 HIT:          0 MISS:          0 MSHR_MERGE:          0
cpu1->LLC PREFETCH     ACCESS:          0 HIT:          0 MISS:          0 MSHR_MERGE:          0
cpu1->LLC WRITE        ACCESS:          0 HIT:          0 MISS:          0 MSHR_MERGE:          0
cpu1->LLC TRANSLATION  ACCESS:     387586 HIT:         72 MISS:     387514 MSHR_MERGE:          0
cpu1->LLC PREFETCH REQUESTED:          0 ISSUED:          0 USEFUL:          0 USELESS:          0
cpu1->LLC AVERAGE MISS LATENCY: 2325 cycles
cpu4->LLC TOTAL        ACCESS:    9834908 HIT:    8988894 MISS:     846014 MSHR_MERGE:      48586
cpu4->LLC LOAD         ACCESS:    1101934 HIT:    1006275 MISS:      95659 MSHR_MERGE:      35308
cpu4->LLC RFO          ACCESS:    4344333 HIT:    3882658 MISS:     461675 MSHR_MERGE:      13278
cpu4->LLC PREFETCH     ACCESS:          0 HIT:          0 MISS:          0 MSHR_MERGE:          0
cpu4->LLC WRITE        ACCESS:    4388641 HIT:    4099961 MISS:     288680 MSHR_MERGE:          0
cpu4->LLC TRANSLATION  ACCESS:          0 HIT:          0 MISS:          0 MSHR_MERGE:          0
cpu4->LLC PREFETCH REQUESTED:          0 ISSUED:          0 USEFUL:          0 USELESS:          0
cpu4->LLC AVERAGE MISS LATENCY: 1666 cycles
cpu5->LLC TOTAL        ACCESS:    1943356 HIT:     317467 MISS:    1625889 MSHR_MERGE:    1048566
cpu5->LLC LOAD         ACCESS:    1554931 HIT:     317427 MISS:    1237504 MSHR_MERGE:    1048566
cpu5->LLC RFO          ACCESS:          0 HIT:          0 MISS:          0 MSHR_MERGE:          0
cpu5->LLC PREFETCH     ACCESS:          0 HIT:          0 MISS:          0 MSHR_MERGE:          0
cpu5->LLC WRITE        ACCESS:          0 HIT:          0 MISS:          0 MSHR_MERGE:          0
cpu5->LLC TRANSLATION  ACCESS:     388425 HIT:         40 MISS:     388385 MSHR_MERGE:          0
cpu5->LLC PREFETCH REQUESTED:          0 ISSUED:          0 USEFUL:          0 USELESS:          0
cpu5->LLC AVERAGE MISS LATENCY: 1320 cycles
cpu8->LLC TOTAL        ACCESS:    9957055 HIT:    9358352 MISS:     598703 MSHR_MERGE:     388392
cpu8->LLC LOAD         ACCESS:    1117527 HIT:    1011262 MISS:     106265 MSHR_MERGE:      82664
cpu8->LLC RFO          ACCESS:    4395675 HIT:    4005655 MISS:     390020 MSHR_MERGE:     305728
cpu8->LLC PREFETCH     ACCESS:          0 HIT:          0 MISS:          0 MSHR_MERGE:          0
cpu8->LLC WRITE        ACCESS:    4443853 HIT:    4341435 MISS:     102418 MSHR_MERGE:          0
cpu8->LLC TRANSLATION  ACCESS:          0 HIT:          0 MISS:          0 MSHR_MERGE:          0
cpu8->LLC PREFETCH REQUESTED:          0 ISSUED:          0 USEFUL:          0 USELESS:          0
cpu8->LLC AVERAGE MISS LATENCY: 2513 cycles
cpu9->LLC TOTAL        ACCESS:    1940816 HIT:     299831 MISS:    1640985 MSHR_MERGE:     846619
cpu9->LLC LOAD         ACCESS:    1553016 HIT:     299751 MISS:    1253265 MSHR_MERGE:     846619
cpu9->LLC RFO          ACCESS:          0 HIT:          0 MISS:          0 MSHR_MERGE:          0
cpu9->LLC PREFETCH     ACCESS:          0 HIT:          0 MISS:          0 MSHR_MERGE:          0
cpu9->LLC WRITE        ACCESS:          0 HIT:          0 MISS:          0 MSHR_MERGE:          0
cpu9->LLC TRANSLATION  ACCESS:     387800 HIT:         80 MISS:     387720 MSHR_MERGE:          0
cpu9->LLC PREFETCH REQUESTED:          0 ISSUED:          0 USEFUL:          0 USELESS:          0
cpu9->LLC AVERAGE MISS LATENCY: 1760 cycles
cpu12->LLC TOTAL        ACCESS:    9957547 HIT:    8087015 MISS:    1870532 MSHR_MERGE:    1292492
cpu12->LLC LOAD         ACCESS:    1117521 HIT:     999208 MISS:     118313 MSHR_MERGE:      95814
cpu12->LLC RFO          ACCESS:    4395934 HIT:    2907939 MISS:    1487995 MSHR_MERGE:    1196678
cpu12->LLC PREFETCH     ACCESS:          0 HIT:          0 MISS:          0 MSHR_MERGE:          0
cpu12->LLC WRITE        ACCESS:    4444092 HIT:    4179868 MISS:     264224 MSHR_MERGE:          0
cpu12->LLC TRANSLATION  ACCESS:          0 HIT:          0 MISS:          0 MSHR_MERGE:          0
cpu12->LLC PREFETCH REQUESTED:          0 ISSUED:          0 USEFUL:          0 USELESS:          0
cpu12->LLC AVERAGE MISS LATENCY: 1085 cycles
cpu13->LLC TOTAL        ACCESS:    1939729 HIT:     294969 MISS:    1644760 MSHR_MERGE:     740805
cpu13->LLC LOAD         ACCESS:    1552101 HIT:     294817 MISS:    1257284 MSHR_MERGE:     740805
cpu13->LLC RFO          ACCESS:          0 HIT:          0 MISS:          0 MSHR_MERGE:          0
cpu13->LLC PREFETCH     ACCESS:          0 HIT:          0 MISS:          0 MSHR_MERGE:          0
cpu13->LLC WRITE        ACCESS:          0 HIT:          0 MISS:          0 MSHR_MERGE:          0
cpu13->LLC TRANSLATION  ACCESS:     387628 HIT:        152 MISS:     387476 MSHR_MERGE:          0
cpu13->LLC PREFETCH REQUESTED:          0 ISSUED:          0 USEFUL:          0 USELESS:          0
cpu13->LLC AVERAGE MISS LATENCY: 2529 cycles
LLC COHERENCE INVALIDATIONS:   24644019
LLC COHERENCE WRITE-HIT OTHER-SHARER EVENTS:   16797296

DRAM Statistics

Channel 0 RQ ROW_BUFFER_HIT:     116818
  ROW_BUFFER_MISS:    4950767
  AVG DBUS CONGESTED CYCLE: 7.14
Channel 0 WQ ROW_BUFFER_HIT:     394123
  ROW_BUFFER_MISS:    1680360
  FULL:      31193
Channel 0 REFRESHES ISSUED:      27494

VMEM ALIASED FILLS (cross-CPU shared-page hits): 897231
