[VMEM] WARNING: physical memory size is smaller than virtual memory size.

*** ChampSim Multicore Out-of-Order Simulator ***
Warmup Instructions: 50000000
Simulation Instructions: 100000000
Number of CPUs: 16
Page size: 4096

Off-chip DRAM Size: 16 GiB Channels: 1 Width: 64-bit Data Rate: 3205 MT/s
*** Reached end of trace: (11, "/home/harshraj/COALESCE-Hashed-Perceptron-Cache-Replacement-Policy/simulator/traces/canneal_big3.champsimtrace")
*** Reached end of trace: (2, "/home/harshraj/COALESCE-Hashed-Perceptron-Cache-Replacement-Policy/simulator/traces/canneal_big2.champsimtrace")
*** Reached end of trace: (7, "/home/harshraj/COALESCE-Hashed-Perceptron-Cache-Replacement-Policy/simulator/traces/canneal_big3.champsimtrace")
*** Reached end of trace: (3, "/home/harshraj/COALESCE-Hashed-Perceptron-Cache-Replacement-Policy/simulator/traces/canneal_big3.champsimtrace")
*** Reached end of trace: (15, "/home/harshraj/COALESCE-Hashed-Perceptron-Cache-Replacement-Policy/simulator/traces/canneal_big3.champsimtrace")
*** Reached end of trace: (10, "/home/harshraj/COALESCE-Hashed-Perceptron-Cache-Replacement-Policy/simulator/traces/canneal_big2.champsimtrace")
*** Reached end of trace: (6, "/home/harshraj/COALESCE-Hashed-Perceptron-Cache-Replacement-Policy/simulator/traces/canneal_big2.champsimtrace")
*** Reached end of trace: (14, "/home/harshraj/COALESCE-Hashed-Perceptron-Cache-Replacement-Policy/simulator/traces/canneal_big2.champsimtrace")
*** Reached end of trace: (0, "/home/harshraj/COALESCE-Hashed-Perceptron-Cache-Replacement-Policy/simulator/traces/canneal_big0.champsimtrace")
*** Reached end of trace: (8, "/home/harshraj/COALESCE-Hashed-Perceptron-Cache-Replacement-Policy/simulator/traces/canneal_big0.champsimtrace")
*** Reached end of trace: (12, "/home/harshraj/COALESCE-Hashed-Perceptron-Cache-Replacement-Policy/simulator/traces/canneal_big0.champsimtrace")
*** Reached end of trace: (4, "/home/harshraj/COALESCE-Hashed-Perceptron-Cache-Replacement-Policy/simulator/traces/canneal_big0.champsimtrace")
*** Reached end of trace: (11, "/home/harshraj/COALESCE-Hashed-Perceptron-Cache-Replacement-Policy/simulator/traces/canneal_big3.champsimtrace")
Heartbeat CPU 11 instructions: 10000001 cycles: 2503263 heartbeat IPC: 3.995 cumulative IPC: 3.995 (Simulation time: 00 hr 16 min 07 sec)
*** Reached end of trace: (2, "/home/harshraj/COALESCE-Hashed-Perceptron-Cache-Replacement-Policy/simulator/traces/canneal_big2.champsimtrace")
*** Reached end of trace: (7, "/home/harshraj/COALESCE-Hashed-Perceptron-Cache-Replacement-Policy/simulator/traces/canneal_big3.champsimtrace")
*** Reached end of trace: (3, "/home/harshraj/COALESCE-Hashed-Perceptron-Cache-Replacement-Policy/simulator/traces/canneal_big3.champsimtrace")
*** Reached end of trace: (15, "/home/harshraj/COALESCE-Hashed-Perceptron-Cache-Replacement-Policy/simulator/traces/canneal_big3.champsimtrace")
Heartbeat CPU 2 instructions: 10000001 cycles: 2503412 heartbeat IPC: 3.995 cumulative IPC: 3.995 (Simulation time: 00 hr 16 min 07 sec)
Heartbeat CPU 7 instructions: 10000001 cycles: 2503441 heartbeat IPC: 3.995 cumulative IPC: 3.995 (Simulation time: 00 hr 16 min 07 sec)
Heartbeat CPU 3 instructions: 10000001 cycles: 2503453 heartbeat IPC: 3.994 cumulative IPC: 3.994 (Simulation time: 00 hr 16 min 07 sec)
Heartbeat CPU 15 instructions: 10000001 cycles: 2503461 heartbeat IPC: 3.994 cumulative IPC: 3.994 (Simulation time: 00 hr 16 min 07 sec)
*** Reached end of trace: (10, "/home/harshraj/COALESCE-Hashed-Perceptron-Cache-Replacement-Policy/simulator/traces/canneal_big2.champsimtrace")
*** Reached end of trace: (6, "/home/harshraj/COALESCE-Hashed-Perceptron-Cache-Replacement-Policy/simulator/traces/canneal_big2.champsimtrace")
*** Reached end of trace: (14, "/home/harshraj/COALESCE-Hashed-Perceptron-Cache-Replacement-Policy/simulator/traces/canneal_big2.champsimtrace")
Heartbeat CPU 10 instructions: 10000001 cycles: 2503606 heartbeat IPC: 3.994 cumulative IPC: 3.994 (Simulation time: 00 hr 16 min 07 sec)
Heartbeat CPU 6 instructions: 10000001 cycles: 2503608 heartbeat IPC: 3.994 cumulative IPC: 3.994 (Simulation time: 00 hr 16 min 07 sec)
Heartbeat CPU 14 instructions: 10000001 cycles: 2503612 heartbeat IPC: 3.994 cumulative IPC: 3.994 (Simulation time: 00 hr 16 min 07 sec)
*** Reached end of trace: (11, "/home/harshraj/COALESCE-Hashed-Perceptron-Cache-Replacement-Policy/simulator/traces/canneal_big3.champsimtrace")
*** Reached end of trace: (2, "/home/harshraj/COALESCE-Hashed-Perceptron-Cache-Replacement-Policy/simulator/traces/canneal_big2.champsimtrace")
*** Reached end of trace: (7, "/home/harshraj/COALESCE-Hashed-Perceptron-Cache-Replacement-Policy/simulator/traces/canneal_big3.champsimtrace")
*** Reached end of trace: (3, "/home/harshraj/COALESCE-Hashed-Perceptron-Cache-Replacement-Policy/simulator/traces/canneal_big3.champsimtrace")
*** Reached end of trace: (15, "/home/harshraj/COALESCE-Hashed-Perceptron-Cache-Replacement-Policy/simulator/traces/canneal_big3.champsimtrace")
*** Reached end of trace: (10, "/home/harshraj/COALESCE-Hashed-Perceptron-Cache-Replacement-Policy/simulator/traces/canneal_big2.champsimtrace")
*** Reached end of trace: (6, "/home/harshraj/COALESCE-Hashed-Perceptron-Cache-Replacement-Policy/simulator/traces/canneal_big2.champsimtrace")
*** Reached end of trace: (14, "/home/harshraj/COALESCE-Hashed-Perceptron-Cache-Replacement-Policy/simulator/traces/canneal_big2.champsimtrace")
*** Reached end of trace: (8, "/home/harshraj/COALESCE-Hashed-Perceptron-Cache-Replacement-Policy/simulator/traces/canneal_big0.champsimtrace")
Heartbeat CPU 8 instructions: 10000003 cycles: 3966720 heartbeat IPC: 2.521 cumulative IPC: 2.521 (Simulation time: 00 hr 25 min 39 sec)
*** Reached end of trace: (0, "/home/harshraj/COALESCE-Hashed-Perceptron-Cache-Replacement-Policy/simulator/traces/canneal_big0.champsimtrace")
Heartbeat CPU 0 instructions: 10000003 cycles: 3968555 heartbeat IPC: 2.52 cumulative IPC: 2.52 (Simulation time: 00 hr 25 min 40 sec)
*** Reached end of trace: (12, "/home/harshraj/COALESCE-Hashed-Perceptron-Cache-Replacement-Policy/simulator/traces/canneal_big0.champsimtrace")
Heartbeat CPU 12 instructions: 10000003 cycles: 3968727 heartbeat IPC: 2.52 cumulative IPC: 2.52 (Simulation time: 00 hr 25 min 40 sec)
*** Reached end of trace: (4, "/home/harshraj/COALESCE-Hashed-Perceptron-Cache-Replacement-Policy/simulator/traces/canneal_big0.champsimtrace")
Heartbeat CPU 4 instructions: 10000003 cycles: 3973512 heartbeat IPC: 2.517 cumulative IPC: 2.517 (Simulation time: 00 hr 25 min 43 sec)
*** Reached end of trace: (1, "/home/harshraj/COALESCE-Hashed-Perceptron-Cache-Replacement-Policy/simulator/traces/canneal_big1.champsimtrace")
*** Reached end of trace: (5, "/home/harshraj/COALESCE-Hashed-Perceptron-Cache-Replacement-Policy/simulator/traces/canneal_big1.champsimtrace")
*** Reached end of trace: (9, "/home/harshraj/COALESCE-Hashed-Perceptron-Cache-Replacement-Policy/simulator/traces/canneal_big1.champsimtrace")
*** Reached end of trace: (13, "/home/harshraj/COALESCE-Hashed-Perceptron-Cache-Replacement-Policy/simulator/traces/canneal_big1.champsimtrace")
*** Reached end of trace: (11, "/home/harshraj/COALESCE-Hashed-Perceptron-Cache-Replacement-Policy/simulator/traces/canneal_big3.champsimtrace")
Heartbeat CPU 11 instructions: 20000001 cycles: 5003263 heartbeat IPC: 4 cumulative IPC: 3.997 (Simulation time: 00 hr 32 min 49 sec)
*** Reached end of trace: (2, "/home/harshraj/COALESCE-Hashed-Perceptron-Cache-Replacement-Policy/simulator/traces/canneal_big2.champsimtrace")
*** Reached end of trace: (7, "/home/harshraj/COALESCE-Hashed-Perceptron-Cache-Replacement-Policy/simulator/traces/canneal_big3.champsimtrace")
*** Reached end of trace: (3, "/home/harshraj/COALESCE-Hashed-Perceptron-Cache-Replacement-Policy/simulator/traces/canneal_big3.champsimtrace")
*** Reached end of trace: (15, "/home/harshraj/COALESCE-Hashed-Perceptron-Cache-Replacement-Policy/simulator/traces/canneal_big3.champsimtrace")
Heartbeat CPU 2 instructions: 20000001 cycles: 5003412 heartbeat IPC: 4 cumulative IPC: 3.997 (Simulation time: 00 hr 32 min 49 sec)
Heartbeat CPU 7 instructions: 20000001 cycles: 5003441 heartbeat IPC: 4 cumulative IPC: 3.997 (Simulation time: 00 hr 32 min 49 sec)
Heartbeat CPU 3 instructions: 20000001 cycles: 5003453 heartbeat IPC: 4 cumulative IPC: 3.997 (Simulation time: 00 hr 32 min 49 sec)
Heartbeat CPU 15 instructions: 20000001 cycles: 5003461 heartbeat IPC: 4 cumulative IPC: 3.997 (Simulation time: 00 hr 32 min 49 sec)
*** Reached end of trace: (10, "/home/harshraj/COALESCE-Hashed-Perceptron-Cache-Replacement-Policy/simulator/traces/canneal_big2.champsimtrace")
*** Reached end of trace: (6, "/home/harshraj/COALESCE-Hashed-Perceptron-Cache-Replacement-Policy/simulator/traces/canneal_big2.champsimtrace")
*** Reached end of trace: (14, "/home/harshraj/COALESCE-Hashed-Perceptron-Cache-Replacement-Policy/simulator/traces/canneal_big2.champsimtrace")
Heartbeat CPU 10 instructions: 20000001 cycles: 5003606 heartbeat IPC: 4 cumulative IPC: 3.997 (Simulation time: 00 hr 32 min 49 sec)
Heartbeat CPU 6 instructions: 20000001 cycles: 5003608 heartbeat IPC: 4 cumulative IPC: 3.997 (Simulation time: 00 hr 32 min 49 sec)
Heartbeat CPU 14 instructions: 20000001 cycles: 5003612 heartbeat IPC: 4 cumulative IPC: 3.997 (Simulation time: 00 hr 32 min 49 sec)
*** Reached end of trace: (8, "/home/harshraj/COALESCE-Hashed-Perceptron-Cache-Replacement-Policy/simulator/traces/canneal_big0.champsimtrace")
*** Reached end of trace: (0, "/home/harshraj/COALESCE-Hashed-Perceptron-Cache-Replacement-Policy/simulator/traces/canneal_big0.champsimtrace")
*** Reached end of trace: (12, "/home/harshraj/COALESCE-Hashed-Perceptron-Cache-Replacement-Policy/simulator/traces/canneal_big0.champsimtrace")
*** Reached end of trace: (4, "/home/harshraj/COALESCE-Hashed-Perceptron-Cache-Replacement-Policy/simulator/traces/canneal_big0.champsimtrace")
*** Reached end of trace: (11, "/home/harshraj/COALESCE-Hashed-Perceptron-Cache-Replacement-Policy/simulator/traces/canneal_big3.champsimtrace")
*** Reached end of trace: (2, "/home/harshraj/COALESCE-Hashed-Perceptron-Cache-Replacement-Policy/simulator/traces/canneal_big2.champsimtrace")
*** Reached end of trace: (7, "/home/harshraj/COALESCE-Hashed-Perceptron-Cache-Replacement-Policy/simulator/traces/canneal_big3.champsimtrace")
*** Reached end of trace: (3, "/home/harshraj/COALESCE-Hashed-Perceptron-Cache-Replacement-Policy/simulator/traces/canneal_big3.champsimtrace")
*** Reached end of trace: (15, "/home/harshraj/COALESCE-Hashed-Perceptron-Cache-Replacement-Policy/simulator/traces/canneal_big3.champsimtrace")
*** Reached end of trace: (10, "/home/harshraj/COALESCE-Hashed-Perceptron-Cache-Replacement-Policy/simulator/traces/canneal_big2.champsimtrace")
*** Reached end of trace: (6, "/home/harshraj/COALESCE-Hashed-Perceptron-Cache-Replacement-Policy/simulator/traces/canneal_big2.champsimtrace")
*** Reached end of trace: (14, "/home/harshraj/COALESCE-Hashed-Perceptron-Cache-Replacement-Policy/simulator/traces/canneal_big2.champsimtrace")
*** Reached end of trace: (13, "/home/harshraj/COALESCE-Hashed-Perceptron-Cache-Replacement-Policy/simulator/traces/canneal_big1.champsimtrace")
*** Reached end of trace: (1, "/home/harshraj/COALESCE-Hashed-Perceptron-Cache-Replacement-Policy/simulator/traces/canneal_big1.champsimtrace")
Heartbeat CPU 13 instructions: 10000002 cycles: 7022428 heartbeat IPC: 1.424 cumulative IPC: 1.424 (Simulation time: 00 hr 46 min 08 sec)
Heartbeat CPU 1 instructions: 10000002 cycles: 7022436 heartbeat IPC: 1.424 cumulative IPC: 1.424 (Simulation time: 00 hr 46 min 08 sec)
*** Reached end of trace: (9, "/home/harshraj/COALESCE-Hashed-Perceptron-Cache-Replacement-Policy/simulator/traces/canneal_big1.champsimtrace")
Heartbeat CPU 9 instructions: 10000002 cycles: 7022846 heartbeat IPC: 1.424 cumulative IPC: 1.424 (Simulation time: 00 hr 46 min 08 sec)
*** Reached end of trace: (5, "/home/harshraj/COALESCE-Hashed-Perceptron-Cache-Replacement-Policy/simulator/traces/canneal_big1.champsimtrace")
Heartbeat CPU 5 instructions: 10000002 cycles: 7029856 heartbeat IPC: 1.423 cumulative IPC: 1.423 (Simulation time: 00 hr 46 min 11 sec)
*** Reached end of trace: (11, "/home/harshraj/COALESCE-Hashed-Perceptron-Cache-Replacement-Policy/simulator/traces/canneal_big3.champsimtrace")
Heartbeat CPU 11 instructions: 30000001 cycles: 7503263 heartbeat IPC: 4 cumulative IPC: 3.998 (Simulation time: 00 hr 49 min 17 sec)
*** Reached end of trace: (2, "/home/harshraj/COALESCE-Hashed-Perceptron-Cache-Replacement-Policy/simulator/traces/canneal_big2.champsimtrace")
*** Reached end of trace: (7, "/home/harshraj/COALESCE-Hashed-Perceptron-Cache-Replacement-Policy/simulator/traces/canneal_big3.champsimtrace")
*** Reached end of trace: (3, "/home/harshraj/COALESCE-Hashed-Perceptron-Cache-Replacement-Policy/simulator/traces/canneal_big3.champsimtrace")
*** Reached end of trace: (15, "/home/harshraj/COALESCE-Hashed-Perceptron-Cache-Replacement-Policy/simulator/traces/canneal_big3.champsimtrace")
Heartbeat CPU 2 instructions: 30000001 cycles: 7503412 heartbeat IPC: 4 cumulative IPC: 3.998 (Simulation time: 00 hr 49 min 17 sec)
Heartbeat CPU 7 instructions: 30000001 cycles: 7503441 heartbeat IPC: 4 cumulative IPC: 3.998 (Simulation time: 00 hr 49 min 17 sec)
Heartbeat CPU 3 instructions: 30000001 cycles: 7503453 heartbeat IPC: 4 cumulative IPC: 3.998 (Simulation time: 00 hr 49 min 17 sec)
Heartbeat CPU 15 instructions: 30000001 cycles: 7503461 heartbeat IPC: 4 cumulative IPC: 3.998 (Simulation time: 00 hr 49 min 17 sec)
*** Reached end of trace: (10, "/home/harshraj/COALESCE-Hashed-Perceptron-Cache-Replacement-Policy/simulator/traces/canneal_big2.champsimtrace")
*** Reached end of trace: (6, "/home/harshraj/COALESCE-Hashed-Perceptron-Cache-Replacement-Policy/simulator/traces/canneal_big2.champsimtrace")
*** Reached end of trace: (14, "/home/harshraj/COALESCE-Hashed-Perceptron-Cache-Replacement-Policy/simulator/traces/canneal_big2.champsimtrace")
Heartbeat CPU 10 instructions: 30000001 cycles: 7503606 heartbeat IPC: 4 cumulative IPC: 3.998 (Simulation time: 00 hr 49 min 17 sec)
Heartbeat CPU 6 instructions: 30000001 cycles: 7503608 heartbeat IPC: 4 cumulative IPC: 3.998 (Simulation time: 00 hr 49 min 17 sec)
Heartbeat CPU 14 instructions: 30000001 cycles: 7503612 heartbeat IPC: 4 cumulative IPC: 3.998 (Simulation time: 00 hr 49 min 17 sec)
*** Reached end of trace: (8, "/home/harshraj/COALESCE-Hashed-Perceptron-Cache-Replacement-Policy/simulator/traces/canneal_big0.champsimtrace")
Heartbeat CPU 8 instructions: 20000006 cycles: 7807770 heartbeat IPC: 2.603 cumulative IPC: 2.562 (Simulation time: 00 hr 51 min 05 sec)
*** Reached end of trace: (12, "/home/harshraj/COALESCE-Hashed-Perceptron-Cache-Replacement-Policy/simulator/traces/canneal_big0.champsimtrace")
*** Reached end of trace: (0, "/home/harshraj/COALESCE-Hashed-Perceptron-Cache-Replacement-Policy/simulator/traces/canneal_big0.champsimtrace")
Heartbeat CPU 12 instructions: 20000006 cycles: 7813184 heartbeat IPC: 2.601 cumulative IPC: 2.56 (Simulation time: 00 hr 51 min 07 sec)
Heartbeat CPU 0 instructions: 20000006 cycles: 7813234 heartbeat IPC: 2.601 cumulative IPC: 2.56 (Simulation time: 00 hr 51 min 07 sec)
*** Reached end of trace: (4, "/home/harshraj/COALESCE-Hashed-Perceptron-Cache-Replacement-Policy/simulator/traces/canneal_big0.champsimtrace")
Heartbeat CPU 4 instructions: 20000006 cycles: 7827628 heartbeat IPC: 2.595 cumulative IPC: 2.555 (Simulation time: 00 hr 51 min 13 sec)
*** Reached end of trace: (11, "/home/harshraj/COALESCE-Hashed-Perceptron-Cache-Replacement-Policy/simulator/traces/canneal_big3.champsimtrace")
*** Reached end of trace: (2, "/home/harshraj/COALESCE-Hashed-Perceptron-Cache-Replacement-Policy/simulator/traces/canneal_big2.champsimtrace")
*** Reached end of trace: (7, "/home/harshraj/COALESCE-Hashed-Perceptron-Cache-Replacement-Policy/simulator/traces/canneal_big3.champsimtrace")
*** Reached end of trace: (3, "/home/harshraj/COALESCE-Hashed-Perceptron-Cache-Replacement-Policy/simulator/traces/canneal_big3.champsimtrace")
*** Reached end of trace: (15, "/home/harshraj/COALESCE-Hashed-Perceptron-Cache-Replacement-Policy/simulator/traces/canneal_big3.champsimtrace")
*** Reached end of trace: (10, "/home/harshraj/COALESCE-Hashed-Perceptron-Cache-Replacement-Policy/simulator/traces/canneal_big2.champsimtrace")
*** Reached end of trace: (6, "/home/harshraj/COALESCE-Hashed-Perceptron-Cache-Replacement-Policy/simulator/traces/canneal_big2.champsimtrace")
*** Reached end of trace: (14, "/home/harshraj/COALESCE-Hashed-Perceptron-Cache-Replacement-Policy/simulator/traces/canneal_big2.champsimtrace")
*** Reached end of trace: (8, "/home/harshraj/COALESCE-Hashed-Perceptron-Cache-Replacement-Policy/simulator/traces/canneal_big0.champsimtrace")
*** Reached end of trace: (12, "/home/harshraj/COALESCE-Hashed-Perceptron-Cache-Replacement-Policy/simulator/traces/canneal_big0.champsimtrace")
*** Reached end of trace: (0, "/home/harshraj/COALESCE-Hashed-Perceptron-Cache-Replacement-Policy/simulator/traces/canneal_big0.champsimtrace")
*** Reached end of trace: (4, "/home/harshraj/COALESCE-Hashed-Perceptron-Cache-Replacement-Policy/simulator/traces/canneal_big0.champsimtrace")
*** Reached end of trace: (13, "/home/harshraj/COALESCE-Hashed-Perceptron-Cache-Replacement-Policy/simulator/traces/canneal_big1.champsimtrace")
*** Reached end of trace: (1, "/home/harshraj/COALESCE-Hashed-Perceptron-Cache-Replacement-Policy/simulator/traces/canneal_big1.champsimtrace")
*** Reached end of trace: (9, "/home/harshraj/COALESCE-Hashed-Perceptron-Cache-Replacement-Policy/simulator/traces/canneal_big1.champsimtrace")
*** Reached end of trace: (5, "/home/harshraj/COALESCE-Hashed-Perceptron-Cache-Replacement-Policy/simulator/traces/canneal_big1.champsimtrace")
*** Reached end of trace: (11, "/home/harshraj/COALESCE-Hashed-Perceptron-Cache-Replacement-Policy/simulator/traces/canneal_big3.champsimtrace")
Heartbeat CPU 11 instructions: 40000001 cycles: 10003263 heartbeat IPC: 4 cumulative IPC: 3.999 (Simulation time: 01 hr 03 min 15 sec)
*** Reached end of trace: (2, "/home/harshraj/COALESCE-Hashed-Perceptron-Cache-Replacement-Policy/simulator/traces/canneal_big2.champsimtrace")
*** Reached end of trace: (7, "/home/harshraj/COALESCE-Hashed-Perceptron-Cache-Replacement-Policy/simulator/traces/canneal_big3.champsimtrace")
*** Reached end of trace: (3, "/home/harshraj/COALESCE-Hashed-Perceptron-Cache-Replacement-Policy/simulator/traces/canneal_big3.champsimtrace")
*** Reached end of trace: (15, "/home/harshraj/COALESCE-Hashed-Perceptron-Cache-Replacement-Policy/simulator/traces/canneal_big3.champsimtrace")
Heartbeat CPU 2 instructions: 40000001 cycles: 10003412 heartbeat IPC: 4 cumulative IPC: 3.999 (Simulation time: 01 hr 03 min 15 sec)
Heartbeat CPU 7 instructions: 40000001 cycles: 10003441 heartbeat IPC: 4 cumulative IPC: 3.999 (Simulation time: 01 hr 03 min 15 sec)
Heartbeat CPU 3 instructions: 40000001 cycles: 10003453 heartbeat IPC: 4 cumulative IPC: 3.999 (Simulation time: 01 hr 03 min 15 sec)
Heartbeat CPU 15 instructions: 40000001 cycles: 10003461 heartbeat IPC: 4 cumulative IPC: 3.999 (Simulation time: 01 hr 03 min 15 sec)
*** Reached end of trace: (10, "/home/harshraj/COALESCE-Hashed-Perceptron-Cache-Replacement-Policy/simulator/traces/canneal_big2.champsimtrace")
*** Reached end of trace: (6, "/home/harshraj/COALESCE-Hashed-Perceptron-Cache-Replacement-Policy/simulator/traces/canneal_big2.champsimtrace")
*** Reached end of trace: (14, "/home/harshraj/COALESCE-Hashed-Perceptron-Cache-Replacement-Policy/simulator/traces/canneal_big2.champsimtrace")
Heartbeat CPU 10 instructions: 40000001 cycles: 10003606 heartbeat IPC: 4 cumulative IPC: 3.999 (Simulation time: 01 hr 03 min 15 sec)
Heartbeat CPU 6 instructions: 40000001 cycles: 10003608 heartbeat IPC: 4 cumulative IPC: 3.999 (Simulation time: 01 hr 03 min 15 sec)
Heartbeat CPU 14 instructions: 40000001 cycles: 10003612 heartbeat IPC: 4 cumulative IPC: 3.999 (Simulation time: 01 hr 03 min 15 sec)
*** Reached end of trace: (11, "/home/harshraj/COALESCE-Hashed-Perceptron-Cache-Replacement-Policy/simulator/traces/canneal_big3.champsimtrace")
*** Reached end of trace: (2, "/home/harshraj/COALESCE-Hashed-Perceptron-Cache-Replacement-Policy/simulator/traces/canneal_big2.champsimtrace")
*** Reached end of trace: (7, "/home/harshraj/COALESCE-Hashed-Perceptron-Cache-Replacement-Policy/simulator/traces/canneal_big3.champsimtrace")
*** Reached end of trace: (3, "/home/harshraj/COALESCE-Hashed-Perceptron-Cache-Replacement-Policy/simulator/traces/canneal_big3.champsimtrace")
*** Reached end of trace: (15, "/home/harshraj/COALESCE-Hashed-Perceptron-Cache-Replacement-Policy/simulator/traces/canneal_big3.champsimtrace")
*** Reached end of trace: (10, "/home/harshraj/COALESCE-Hashed-Perceptron-Cache-Replacement-Policy/simulator/traces/canneal_big2.champsimtrace")
*** Reached end of trace: (6, "/home/harshraj/COALESCE-Hashed-Perceptron-Cache-Replacement-Policy/simulator/traces/canneal_big2.champsimtrace")
*** Reached end of trace: (14, "/home/harshraj/COALESCE-Hashed-Perceptron-Cache-Replacement-Policy/simulator/traces/canneal_big2.champsimtrace")
*** Reached end of trace: (8, "/home/harshraj/COALESCE-Hashed-Perceptron-Cache-Replacement-Policy/simulator/traces/canneal_big0.champsimtrace")
Heartbeat CPU 8 instructions: 30000009 cycles: 11648471 heartbeat IPC: 2.604 cumulative IPC: 2.575 (Simulation time: 01 hr 15 min 26 sec)
*** Reached end of trace: (12, "/home/harshraj/COALESCE-Hashed-Perceptron-Cache-Replacement-Policy/simulator/traces/canneal_big0.champsimtrace")
*** Reached end of trace: (0, "/home/harshraj/COALESCE-Hashed-Perceptron-Cache-Replacement-Policy/simulator/traces/canneal_big0.champsimtrace")
Heartbeat CPU 0 instructions: 30000009 cycles: 11657918 heartbeat IPC: 2.601 cumulative IPC: 2.573 (Simulation time: 01 hr 15 min 30 sec)
Heartbeat CPU 12 instructions: 30000009 cycles: 11657918 heartbeat IPC: 2.601 cumulative IPC: 2.573 (Simulation time: 01 hr 15 min 30 sec)
*** Reached end of trace: (4, "/home/harshraj/COALESCE-Hashed-Perceptron-Cache-Replacement-Policy/simulator/traces/canneal_big0.champsimtrace")
Heartbeat CPU 4 instructions: 30000009 cycles: 11682354 heartbeat IPC: 2.594 cumulative IPC: 2.568 (Simulation time: 01 hr 15 min 40 sec)
*** Reached end of trace: (11, "/home/harshraj/COALESCE-Hashed-Perceptron-Cache-Replacement-Policy/simulator/traces/canneal_big3.champsimtrace")
Heartbeat CPU 11 instructions: 50000001 cycles: 12503263 heartbeat IPC: 4 cumulative IPC: 3.999 (Simulation time: 01 hr 21 min 55 sec)
Warmup finished CPU 11 instructions: 50000001 cycles: 12503263 cumulative IPC: 3.999 (Simulation time: 01 hr 21 min 55 sec)
*** Reached end of trace: (2, "/home/harshraj/COALESCE-Hashed-Perceptron-Cache-Replacement-Policy/simulator/traces/canneal_big2.champsimtrace")
*** Reached end of trace: (7, "/home/harshraj/COALESCE-Hashed-Perceptron-Cache-Replacement-Policy/simulator/traces/canneal_big3.champsimtrace")
*** Reached end of trace: (3, "/home/harshraj/COALESCE-Hashed-Perceptron-Cache-Replacement-Policy/simulator/traces/canneal_big3.champsimtrace")
*** Reached end of trace: (15, "/home/harshraj/COALESCE-Hashed-Perceptron-Cache-Replacement-Policy/simulator/traces/canneal_big3.champsimtrace")
Heartbeat CPU 2 instructions: 50000001 cycles: 12503412 heartbeat IPC: 4 cumulative IPC: 3.999 (Simulation time: 01 hr 21 min 55 sec)
Warmup finished CPU 2 instructions: 50000001 cycles: 12503412 cumulative IPC: 3.999 (Simulation time: 01 hr 21 min 55 sec)
Heartbeat CPU 7 instructions: 50000001 cycles: 12503441 heartbeat IPC: 4 cumulative IPC: 3.999 (Simulation time: 01 hr 21 min 55 sec)
Warmup finished CPU 7 instructions: 50000001 cycles: 12503441 cumulative IPC: 3.999 (Simulation time: 01 hr 21 min 55 sec)
Heartbeat CPU 3 instructions: 50000001 cycles: 12503453 heartbeat IPC: 4 cumulative IPC: 3.999 (Simulation time: 01 hr 21 min 55 sec)
Warmup finished CPU 3 instructions: 50000001 cycles: 12503453 cumulative IPC: 3.999 (Simulation time: 01 hr 21 min 55 sec)
Heartbeat CPU 15 instructions: 50000001 cycles: 12503461 heartbeat IPC: 4 cumulative IPC: 3.999 (Simulation time: 01 hr 21 min 55 sec)
Warmup finished CPU 15 instructions: 50000001 cycles: 12503461 cumulative IPC: 3.999 (Simulation time: 01 hr 21 min 55 sec)
*** Reached end of trace: (10, "/home/harshraj/COALESCE-Hashed-Perceptron-Cache-Replacement-Policy/simulator/traces/canneal_big2.champsimtrace")
*** Reached end of trace: (6, "/home/harshraj/COALESCE-Hashed-Perceptron-Cache-Replacement-Policy/simulator/traces/canneal_big2.champsimtrace")
*** Reached end of trace: (14, "/home/harshraj/COALESCE-Hashed-Perceptron-Cache-Replacement-Policy/simulator/traces/canneal_big2.champsimtrace")
Heartbeat CPU 10 instructions: 50000001 cycles: 12503606 heartbeat IPC: 4 cumulative IPC: 3.999 (Simulation time: 01 hr 21 min 55 sec)
Warmup finished CPU 10 instructions: 50000001 cycles: 12503606 cumulative IPC: 3.999 (Simulation time: 01 hr 21 min 55 sec)
Heartbeat CPU 6 instructions: 50000001 cycles: 12503608 heartbeat IPC: 4 cumulative IPC: 3.999 (Simulation time: 01 hr 21 min 55 sec)
Warmup finished CPU 6 instructions: 50000001 cycles: 12503608 cumulative IPC: 3.999 (Simulation time: 01 hr 21 min 55 sec)
Heartbeat CPU 14 instructions: 50000001 cycles: 12503612 heartbeat IPC: 4 cumulative IPC: 3.999 (Simulation time: 01 hr 21 min 55 sec)
Warmup finished CPU 14 instructions: 50000001 cycles: 12503612 cumulative IPC: 3.999 (Simulation time: 01 hr 21 min 55 sec)
*** Reached end of trace: (13, "/home/harshraj/COALESCE-Hashed-Perceptron-Cache-Replacement-Policy/simulator/traces/canneal_big1.champsimtrace")
*** Reached end of trace: (1, "/home/harshraj/COALESCE-Hashed-Perceptron-Cache-Replacement-Policy/simulator/traces/canneal_big1.champsimtrace")
Heartbeat CPU 13 instructions: 20000004 cycles: 12704939 heartbeat IPC: 1.76 cumulative IPC: 1.574 (Simulation time: 01 hr 23 min 23 sec)
Heartbeat CPU 1 instructions: 20000004 cycles: 12704949 heartbeat IPC: 1.76 cumulative IPC: 1.574 (Simulation time: 01 hr 23 min 23 sec)
*** Reached end of trace: (9, "/home/harshraj/COALESCE-Hashed-Perceptron-Cache-Replacement-Policy/simulator/traces/canneal_big1.champsimtrace")
Heartbeat CPU 9 instructions: 20000004 cycles: 12706364 heartbeat IPC: 1.759 cumulative IPC: 1.574 (Simulation time: 01 hr 23 min 23 sec)
*** Reached end of trace: (5, "/home/harshraj/COALESCE-Hashed-Perceptron-Cache-Replacement-Policy/simulator/traces/canneal_big1.champsimtrace")
Heartbeat CPU 5 instructions: 20000004 cycles: 12727644 heartbeat IPC: 1.755 cumulative IPC: 1.571 (Simulation time: 01 hr 23 min 33 sec)
*** Reached end of trace: (8, "/home/harshraj/COALESCE-Hashed-Perceptron-Cache-Replacement-Policy/simulator/traces/canneal_big0.champsimtrace")
*** Reached end of trace: (12, "/home/harshraj/COALESCE-Hashed-Perceptron-Cache-Replacement-Policy/simulator/traces/canneal_big0.champsimtrace")
*** Reached end of trace: (0, "/home/harshraj/COALESCE-Hashed-Perceptron-Cache-Replacement-Policy/simulator/traces/canneal_big0.champsimtrace")
*** Reached end of trace: (4, "/home/harshraj/COALESCE-Hashed-Perceptron-Cache-Replacement-Policy/simulator/traces/canneal_big0.champsimtrace")
*** Reached end of trace: (11, "/home/harshraj/COALESCE-Hashed-Perceptron-Cache-Replacement-Policy/simulator/traces/canneal_big3.champsimtrace")
*** Reached end of trace: (2, "/home/harshraj/COALESCE-Hashed-Perceptron-Cache-Replacement-Policy/simulator/traces/canneal_big2.champsimtrace")
*** Reached end of trace: (7, "/home/harshraj/COALESCE-Hashed-Perceptron-Cache-Replacement-Policy/simulator/traces/canneal_big3.champsimtrace")
*** Reached end of trace: (3, "/home/harshraj/COALESCE-Hashed-Perceptron-Cache-Replacement-Policy/simulator/traces/canneal_big3.champsimtrace")
*** Reached end of trace: (15, "/home/harshraj/COALESCE-Hashed-Perceptron-Cache-Replacement-Policy/simulator/traces/canneal_big3.champsimtrace")
*** Reached end of trace: (10, "/home/harshraj/COALESCE-Hashed-Perceptron-Cache-Replacement-Policy/simulator/traces/canneal_big2.champsimtrace")
*** Reached end of trace: (6, "/home/harshraj/COALESCE-Hashed-Perceptron-Cache-Replacement-Policy/simulator/traces/canneal_big2.champsimtrace")
*** Reached end of trace: (14, "/home/harshraj/COALESCE-Hashed-Perceptron-Cache-Replacement-Policy/simulator/traces/canneal_big2.champsimtrace")
*** Reached end of trace: (11, "/home/harshraj/COALESCE-Hashed-Perceptron-Cache-Replacement-Policy/simulator/traces/canneal_big3.champsimtrace")
Heartbeat CPU 11 instructions: 60000001 cycles: 15003263 heartbeat IPC: 4 cumulative IPC: 3.999 (Simulation time: 01 hr 37 min 51 sec)
*** Reached end of trace: (2, "/home/harshraj/COALESCE-Hashed-Perceptron-Cache-Replacement-Policy/simulator/traces/canneal_big2.champsimtrace")
*** Reached end of trace: (7, "/home/harshraj/COALESCE-Hashed-Perceptron-Cache-Replacement-Policy/simulator/traces/canneal_big3.champsimtrace")
*** Reached end of trace: (3, "/home/harshraj/COALESCE-Hashed-Perceptron-Cache-Replacement-Policy/simulator/traces/canneal_big3.champsimtrace")
*** Reached end of trace: (15, "/home/harshraj/COALESCE-Hashed-Perceptron-Cache-Replacement-Policy/simulator/traces/canneal_big3.champsimtrace")
Heartbeat CPU 2 instructions: 60000001 cycles: 15003412 heartbeat IPC: 4 cumulative IPC: 3.999 (Simulation time: 01 hr 37 min 51 sec)
Heartbeat CPU 7 instructions: 60000001 cycles: 15003441 heartbeat IPC: 4 cumulative IPC: 3.999 (Simulation time: 01 hr 37 min 51 sec)
Heartbeat CPU 3 instructions: 60000001 cycles: 15003453 heartbeat IPC: 4 cumulative IPC: 3.999 (Simulation time: 01 hr 37 min 51 sec)
Heartbeat CPU 15 instructions: 60000001 cycles: 15003461 heartbeat IPC: 4 cumulative IPC: 3.999 (Simulation time: 01 hr 37 min 51 sec)
*** Reached end of trace: (10, "/home/harshraj/COALESCE-Hashed-Perceptron-Cache-Replacement-Policy/simulator/traces/canneal_big2.champsimtrace")
*** Reached end of trace: (6, "/home/harshraj/COALESCE-Hashed-Perceptron-Cache-Replacement-Policy/simulator/traces/canneal_big2.champsimtrace")
*** Reached end of trace: (14, "/home/harshraj/COALESCE-Hashed-Perceptron-Cache-Replacement-Policy/simulator/traces/canneal_big2.champsimtrace")
Heartbeat CPU 10 instructions: 60000001 cycles: 15003606 heartbeat IPC: 4 cumulative IPC: 3.999 (Simulation time: 01 hr 37 min 51 sec)
Heartbeat CPU 6 instructions: 60000001 cycles: 15003608 heartbeat IPC: 4 cumulative IPC: 3.999 (Simulation time: 01 hr 37 min 51 sec)
Heartbeat CPU 14 instructions: 60000001 cycles: 15003612 heartbeat IPC: 4 cumulative IPC: 3.999 (Simulation time: 01 hr 37 min 51 sec)
*** Reached end of trace: (8, "/home/harshraj/COALESCE-Hashed-Perceptron-Cache-Replacement-Policy/simulator/traces/canneal_big0.champsimtrace")
Heartbeat CPU 8 instructions: 40000012 cycles: 15488967 heartbeat IPC: 2.604 cumulative IPC: 2.582 (Simulation time: 01 hr 41 min 21 sec)
*** Reached end of trace: (12, "/home/harshraj/COALESCE-Hashed-Perceptron-Cache-Replacement-Policy/simulator/traces/canneal_big0.champsimtrace")
*** Reached end of trace: (0, "/home/harshraj/COALESCE-Hashed-Perceptron-Cache-Replacement-Policy/simulator/traces/canneal_big0.champsimtrace")
Heartbeat CPU 0 instructions: 40000012 cycles: 15503119 heartbeat IPC: 2.601 cumulative IPC: 2.58 (Simulation time: 01 hr 41 min 28 sec)
Heartbeat CPU 12 instructions: 40000012 cycles: 15503119 heartbeat IPC: 2.601 cumulative IPC: 2.58 (Simulation time: 01 hr 41 min 28 sec)
*** Reached end of trace: (4, "/home/harshraj/COALESCE-Hashed-Perceptron-Cache-Replacement-Policy/simulator/traces/canneal_big0.champsimtrace")
Heartbeat CPU 4 instructions: 40000012 cycles: 15537085 heartbeat IPC: 2.594 cumulative IPC: 2.574 (Simulation time: 01 hr 41 min 44 sec)
*** Reached end of trace: (13, "/home/harshraj/COALESCE-Hashed-Perceptron-Cache-Replacement-Policy/simulator/traces/canneal_big1.champsimtrace")
*** Reached end of trace: (1, "/home/harshraj/COALESCE-Hashed-Perceptron-Cache-Replacement-Policy/simulator/traces/canneal_big1.champsimtrace")
*** Reached end of trace: (9, "/home/harshraj/COALESCE-Hashed-Perceptron-Cache-Replacement-Policy/simulator/traces/canneal_big1.champsimtrace")
*** Reached end of trace: (5, "/home/harshraj/COALESCE-Hashed-Perceptron-Cache-Replacement-Policy/simulator/traces/canneal_big1.champsimtrace")
*** Reached end of trace: (11, "/home/harshraj/COALESCE-Hashed-Perceptron-Cache-Replacement-Policy/simulator/traces/canneal_big3.champsimtrace")
*** Reached end of trace: (2, "/home/harshraj/COALESCE-Hashed-Perceptron-Cache-Replacement-Policy/simulator/traces/canneal_big2.champsimtrace")
*** Reached end of trace: (7, "/home/harshraj/COALESCE-Hashed-Perceptron-Cache-Replacement-Policy/simulator/traces/canneal_big3.champsimtrace")
*** Reached end of trace: (3, "/home/harshraj/COALESCE-Hashed-Perceptron-Cache-Replacement-Policy/simulator/traces/canneal_big3.champsimtrace")
*** Reached end of trace: (15, "/home/harshraj/COALESCE-Hashed-Perceptron-Cache-Replacement-Policy/simulator/traces/canneal_big3.champsimtrace")
*** Reached end of trace: (10, "/home/harshraj/COALESCE-Hashed-Perceptron-Cache-Replacement-Policy/simulator/traces/canneal_big2.champsimtrace")
*** Reached end of trace: (6, "/home/harshraj/COALESCE-Hashed-Perceptron-Cache-Replacement-Policy/simulator/traces/canneal_big2.champsimtrace")
*** Reached end of trace: (14, "/home/harshraj/COALESCE-Hashed-Perceptron-Cache-Replacement-Policy/simulator/traces/canneal_big2.champsimtrace")
*** Reached end of trace: (8, "/home/harshraj/COALESCE-Hashed-Perceptron-Cache-Replacement-Policy/simulator/traces/canneal_big0.champsimtrace")
*** Reached end of trace: (12, "/home/harshraj/COALESCE-Hashed-Perceptron-Cache-Replacement-Policy/simulator/traces/canneal_big0.champsimtrace")
*** Reached end of trace: (0, "/home/harshraj/COALESCE-Hashed-Perceptron-Cache-Replacement-Policy/simulator/traces/canneal_big0.champsimtrace")
*** Reached end of trace: (4, "/home/harshraj/COALESCE-Hashed-Perceptron-Cache-Replacement-Policy/simulator/traces/canneal_big0.champsimtrace")
*** Reached end of trace: (11, "/home/harshraj/COALESCE-Hashed-Perceptron-Cache-Replacement-Policy/simulator/traces/canneal_big3.champsimtrace")
Heartbeat CPU 11 instructions: 70000001 cycles: 17503263 heartbeat IPC: 4 cumulative IPC: 3.999 (Simulation time: 01 hr 54 min 32 sec)
*** Reached end of trace: (2, "/home/harshraj/COALESCE-Hashed-Perceptron-Cache-Replacement-Policy/simulator/traces/canneal_big2.champsimtrace")
*** Reached end of trace: (7, "/home/harshraj/COALESCE-Hashed-Perceptron-Cache-Replacement-Policy/simulator/traces/canneal_big3.champsimtrace")
*** Reached end of trace: (3, "/home/harshraj/COALESCE-Hashed-Perceptron-Cache-Replacement-Policy/simulator/traces/canneal_big3.champsimtrace")
*** Reached end of trace: (15, "/home/harshraj/COALESCE-Hashed-Perceptron-Cache-Replacement-Policy/simulator/traces/canneal_big3.champsimtrace")
Heartbeat CPU 2 instructions: 70000001 cycles: 17503412 heartbeat IPC: 4 cumulative IPC: 3.999 (Simulation time: 01 hr 54 min 32 sec)
Heartbeat CPU 7 instructions: 70000001 cycles: 17503441 heartbeat IPC: 4 cumulative IPC: 3.999 (Simulation time: 01 hr 54 min 32 sec)
Heartbeat CPU 3 instructions: 70000001 cycles: 17503453 heartbeat IPC: 4 cumulative IPC: 3.999 (Simulation time: 01 hr 54 min 32 sec)
Heartbeat CPU 15 instructions: 70000001 cycles: 17503461 heartbeat IPC: 4 cumulative IPC: 3.999 (Simulation time: 01 hr 54 min 32 sec)
*** Reached end of trace: (10, "/home/harshraj/COALESCE-Hashed-Perceptron-Cache-Replacement-Policy/simulator/traces/canneal_big2.champsimtrace")
*** Reached end of trace: (6, "/home/harshraj/COALESCE-Hashed-Perceptron-Cache-Replacement-Policy/simulator/traces/canneal_big2.champsimtrace")
*** Reached end of trace: (14, "/home/harshraj/COALESCE-Hashed-Perceptron-Cache-Replacement-Policy/simulator/traces/canneal_big2.champsimtrace")
Heartbeat CPU 10 instructions: 70000001 cycles: 17503606 heartbeat IPC: 4 cumulative IPC: 3.999 (Simulation time: 01 hr 54 min 32 sec)
Heartbeat CPU 6 instructions: 70000001 cycles: 17503608 heartbeat IPC: 4 cumulative IPC: 3.999 (Simulation time: 01 hr 54 min 32 sec)
Heartbeat CPU 14 instructions: 70000001 cycles: 17503612 heartbeat IPC: 4 cumulative IPC: 3.999 (Simulation time: 01 hr 54 min 32 sec)
*** Reached end of trace: (13, "/home/harshraj/COALESCE-Hashed-Perceptron-Cache-Replacement-Policy/simulator/traces/canneal_big1.champsimtrace")
*** Reached end of trace: (1, "/home/harshraj/COALESCE-Hashed-Perceptron-Cache-Replacement-Policy/simulator/traces/canneal_big1.champsimtrace")
Heartbeat CPU 13 instructions: 30000004 cycles: 18387271 heartbeat IPC: 1.76 cumulative IPC: 1.632 (Simulation time: 01 hr 59 min 24 sec)
Heartbeat CPU 1 instructions: 30000004 cycles: 18387285 heartbeat IPC: 1.76 cumulative IPC: 1.632 (Simulation time: 01 hr 59 min 24 sec)
*** Reached end of trace: (9, "/home/harshraj/COALESCE-Hashed-Perceptron-Cache-Replacement-Policy/simulator/traces/canneal_big1.champsimtrace")
Heartbeat CPU 9 instructions: 30000004 cycles: 18389905 heartbeat IPC: 1.759 cumulative IPC: 1.631 (Simulation time: 01 hr 59 min 25 sec)
*** Reached end of trace: (5, "/home/harshraj/COALESCE-Hashed-Perceptron-Cache-Replacement-Policy/simulator/traces/canneal_big1.champsimtrace")
Heartbeat CPU 5 instructions: 30000004 cycles: 18426000 heartbeat IPC: 1.755 cumulative IPC: 1.628 (Simulation time: 01 hr 59 min 42 sec)
*** Reached end of trace: (11, "/home/harshraj/COALESCE-Hashed-Perceptron-Cache-Replacement-Policy/simulator/traces/canneal_big3.champsimtrace")
*** Reached end of trace: (2, "/home/harshraj/COALESCE-Hashed-Perceptron-Cache-Replacement-Policy/simulator/traces/canneal_big2.champsimtrace")
*** Reached end of trace: (7, "/home/harshraj/COALESCE-Hashed-Perceptron-Cache-Replacement-Policy/simulator/traces/canneal_big3.champsimtrace")
*** Reached end of trace: (3, "/home/harshraj/COALESCE-Hashed-Perceptron-Cache-Replacement-Policy/simulator/traces/canneal_big3.champsimtrace")
*** Reached end of trace: (15, "/home/harshraj/COALESCE-Hashed-Perceptron-Cache-Replacement-Policy/simulator/traces/canneal_big3.champsimtrace")
*** Reached end of trace: (10, "/home/harshraj/COALESCE-Hashed-Perceptron-Cache-Replacement-Policy/simulator/traces/canneal_big2.champsimtrace")
*** Reached end of trace: (6, "/home/harshraj/COALESCE-Hashed-Perceptron-Cache-Replacement-Policy/simulator/traces/canneal_big2.champsimtrace")
*** Reached end of trace: (14, "/home/harshraj/COALESCE-Hashed-Perceptron-Cache-Replacement-Policy/simulator/traces/canneal_big2.champsimtrace")
*** Reached end of trace: (8, "/home/harshraj/COALESCE-Hashed-Perceptron-Cache-Replacement-Policy/simulator/traces/canneal_big0.champsimtrace")
Warmup finished CPU 8 instructions: 50000000 cycles: 19330085 cumulative IPC: 2.587 (Simulation time: 02 hr 06 min 07 sec)
Heartbeat CPU 8 instructions: 50000015 cycles: 19330088 heartbeat IPC: 2.603 cumulative IPC: 2.587 (Simulation time: 02 hr 06 min 07 sec)
*** Reached end of trace: (12, "/home/harshraj/COALESCE-Hashed-Perceptron-Cache-Replacement-Policy/simulator/traces/canneal_big0.champsimtrace")
*** Reached end of trace: (0, "/home/harshraj/COALESCE-Hashed-Perceptron-Cache-Replacement-Policy/simulator/traces/canneal_big0.champsimtrace")
Warmup finished CPU 12 instructions: 50000000 cycles: 19348872 cumulative IPC: 2.584 (Simulation time: 02 hr 06 min 16 sec)
Warmup finished CPU 0 instructions: 50000000 cycles: 19348872 cumulative IPC: 2.584 (Simulation time: 02 hr 06 min 16 sec)
Heartbeat CPU 0 instructions: 50000015 cycles: 19348875 heartbeat IPC: 2.6 cumulative IPC: 2.584 (Simulation time: 02 hr 06 min 16 sec)
Heartbeat CPU 12 instructions: 50000015 cycles: 19348875 heartbeat IPC: 2.6 cumulative IPC: 2.584 (Simulation time: 02 hr 06 min 16 sec)
*** Reached end of trace: (4, "/home/harshraj/COALESCE-Hashed-Perceptron-Cache-Replacement-Policy/simulator/traces/canneal_big0.champsimtrace")
Warmup finished CPU 4 instructions: 50000000 cycles: 19392183 cumulative IPC: 2.578 (Simulation time: 02 hr 06 min 39 sec)
Heartbeat CPU 4 instructions: 50000015 cycles: 19392186 heartbeat IPC: 2.594 cumulative IPC: 2.578 (Simulation time: 02 hr 06 min 39 sec)
*** Reached end of trace: (11, "/home/harshraj/COALESCE-Hashed-Perceptron-Cache-Replacement-Policy/simulator/traces/canneal_big3.champsimtrace")
Heartbeat CPU 11 instructions: 80000001 cycles: 20003263 heartbeat IPC: 4 cumulative IPC: 3.999 (Simulation time: 02 hr 11 min 21 sec)
*** Reached end of trace: (2, "/home/harshraj/COALESCE-Hashed-Perceptron-Cache-Replacement-Policy/simulator/traces/canneal_big2.champsimtrace")
*** Reached end of trace: (7, "/home/harshraj/COALESCE-Hashed-Perceptron-Cache-Replacement-Policy/simulator/traces/canneal_big3.champsimtrace")
*** Reached end of trace: (3, "/home/harshraj/COALESCE-Hashed-Perceptron-Cache-Replacement-Policy/simulator/traces/canneal_big3.champsimtrace")
*** Reached end of trace: (15, "/home/harshraj/COALESCE-Hashed-Perceptron-Cache-Replacement-Policy/simulator/traces/canneal_big3.champsimtrace")
Heartbeat CPU 2 instructions: 80000001 cycles: 20003412 heartbeat IPC: 4 cumulative IPC: 3.999 (Simulation time: 02 hr 11 min 21 sec)
Heartbeat CPU 7 instructions: 80000001 cycles: 20003441 heartbeat IPC: 4 cumulative IPC: 3.999 (Simulation time: 02 hr 11 min 21 sec)
Heartbeat CPU 3 instructions: 80000001 cycles: 20003453 heartbeat IPC: 4 cumulative IPC: 3.999 (Simulation time: 02 hr 11 min 21 sec)
Heartbeat CPU 15 instructions: 80000001 cycles: 20003461 heartbeat IPC: 4 cumulative IPC: 3.999 (Simulation time: 02 hr 11 min 21 sec)
*** Reached end of trace: (10, "/home/harshraj/COALESCE-Hashed-Perceptron-Cache-Replacement-Policy/simulator/traces/canneal_big2.champsimtrace")
*** Reached end of trace: (6, "/home/harshraj/COALESCE-Hashed-Perceptron-Cache-Replacement-Policy/simulator/traces/canneal_big2.champsimtrace")
*** Reached end of trace: (14, "/home/harshraj/COALESCE-Hashed-Perceptron-Cache-Replacement-Policy/simulator/traces/canneal_big2.champsimtrace")
Heartbeat CPU 10 instructions: 80000001 cycles: 20003606 heartbeat IPC: 4 cumulative IPC: 3.999 (Simulation time: 02 hr 11 min 21 sec)
Heartbeat CPU 6 instructions: 80000001 cycles: 20003608 heartbeat IPC: 4 cumulative IPC: 3.999 (Simulation time: 02 hr 11 min 21 sec)
Heartbeat CPU 14 instructions: 80000001 cycles: 20003612 heartbeat IPC: 4 cumulative IPC: 3.999 (Simulation time: 02 hr 11 min 21 sec)
*** Reached end of trace: (13, "/home/harshraj/COALESCE-Hashed-Perceptron-Cache-Replacement-Policy/simulator/traces/canneal_big1.champsimtrace")
*** Reached end of trace: (1, "/home/harshraj/COALESCE-Hashed-Perceptron-Cache-Replacement-Policy/simulator/traces/canneal_big1.champsimtrace")
*** Reached end of trace: (9, "/home/harshraj/COALESCE-Hashed-Perceptron-Cache-Replacement-Policy/simulator/traces/canneal_big1.champsimtrace")
*** Reached end of trace: (8, "/home/harshraj/COALESCE-Hashed-Perceptron-Cache-Replacement-Policy/simulator/traces/canneal_big0.champsimtrace")
*** Reached end of trace: (11, "/home/harshraj/COALESCE-Hashed-Perceptron-Cache-Replacement-Policy/simulator/traces/canneal_big3.champsimtrace")
*** Reached end of trace: (2, "/home/harshraj/COALESCE-Hashed-Perceptron-Cache-Replacement-Policy/simulator/traces/canneal_big2.champsimtrace")
*** Reached end of trace: (7, "/home/harshraj/COALESCE-Hashed-Perceptron-Cache-Replacement-Policy/simulator/traces/canneal_big3.champsimtrace")
*** Reached end of trace: (3, "/home/harshraj/COALESCE-Hashed-Perceptron-Cache-Replacement-Policy/simulator/traces/canneal_big3.champsimtrace")
*** Reached end of trace: (15, "/home/harshraj/COALESCE-Hashed-Perceptron-Cache-Replacement-Policy/simulator/traces/canneal_big3.champsimtrace")
*** Reached end of trace: (10, "/home/harshraj/COALESCE-Hashed-Perceptron-Cache-Replacement-Policy/simulator/traces/canneal_big2.champsimtrace")
*** Reached end of trace: (6, "/home/harshraj/COALESCE-Hashed-Perceptron-Cache-Replacement-Policy/simulator/traces/canneal_big2.champsimtrace")
*** Reached end of trace: (14, "/home/harshraj/COALESCE-Hashed-Perceptron-Cache-Replacement-Policy/simulator/traces/canneal_big2.champsimtrace")
*** Reached end of trace: (12, "/home/harshraj/COALESCE-Hashed-Perceptron-Cache-Replacement-Policy/simulator/traces/canneal_big0.champsimtrace")
*** Reached end of trace: (0, "/home/harshraj/COALESCE-Hashed-Perceptron-Cache-Replacement-Policy/simulator/traces/canneal_big0.champsimtrace")
*** Reached end of trace: (5, "/home/harshraj/COALESCE-Hashed-Perceptron-Cache-Replacement-Policy/simulator/traces/canneal_big1.champsimtrace")
*** Reached end of trace: (4, "/home/harshraj/COALESCE-Hashed-Perceptron-Cache-Replacement-Policy/simulator/traces/canneal_big0.champsimtrace")
*** Reached end of trace: (11, "/home/harshraj/COALESCE-Hashed-Perceptron-Cache-Replacement-Policy/simulator/traces/canneal_big3.champsimtrace")
Heartbeat CPU 11 instructions: 90000001 cycles: 22503263 heartbeat IPC: 4 cumulative IPC: 3.999 (Simulation time: 02 hr 27 min 33 sec)
*** Reached end of trace: (2, "/home/harshraj/COALESCE-Hashed-Perceptron-Cache-Replacement-Policy/simulator/traces/canneal_big2.champsimtrace")
*** Reached end of trace: (7, "/home/harshraj/COALESCE-Hashed-Perceptron-Cache-Replacement-Policy/simulator/traces/canneal_big3.champsimtrace")
*** Reached end of trace: (3, "/home/harshraj/COALESCE-Hashed-Perceptron-Cache-Replacement-Policy/simulator/traces/canneal_big3.champsimtrace")
*** Reached end of trace: (15, "/home/harshraj/COALESCE-Hashed-Perceptron-Cache-Replacement-Policy/simulator/traces/canneal_big3.champsimtrace")
Heartbeat CPU 2 instructions: 90000001 cycles: 22503412 heartbeat IPC: 4 cumulative IPC: 3.999 (Simulation time: 02 hr 27 min 33 sec)
Heartbeat CPU 7 instructions: 90000001 cycles: 22503441 heartbeat IPC: 4 cumulative IPC: 3.999 (Simulation time: 02 hr 27 min 33 sec)
Heartbeat CPU 3 instructions: 90000001 cycles: 22503453 heartbeat IPC: 4 cumulative IPC: 3.999 (Simulation time: 02 hr 27 min 33 sec)
Heartbeat CPU 15 instructions: 90000001 cycles: 22503461 heartbeat IPC: 4 cumulative IPC: 3.999 (Simulation time: 02 hr 27 min 33 sec)
*** Reached end of trace: (10, "/home/harshraj/COALESCE-Hashed-Perceptron-Cache-Replacement-Policy/simulator/traces/canneal_big2.champsimtrace")
*** Reached end of trace: (6, "/home/harshraj/COALESCE-Hashed-Perceptron-Cache-Replacement-Policy/simulator/traces/canneal_big2.champsimtrace")
*** Reached end of trace: (14, "/home/harshraj/COALESCE-Hashed-Perceptron-Cache-Replacement-Policy/simulator/traces/canneal_big2.champsimtrace")
Heartbeat CPU 10 instructions: 90000001 cycles: 22503606 heartbeat IPC: 4 cumulative IPC: 3.999 (Simulation time: 02 hr 27 min 33 sec)
Heartbeat CPU 6 instructions: 90000001 cycles: 22503608 heartbeat IPC: 4 cumulative IPC: 3.999 (Simulation time: 02 hr 27 min 33 sec)
Heartbeat CPU 14 instructions: 90000001 cycles: 22503612 heartbeat IPC: 4 cumulative IPC: 3.999 (Simulation time: 02 hr 27 min 33 sec)
*** Reached end of trace: (8, "/home/harshraj/COALESCE-Hashed-Perceptron-Cache-Replacement-Policy/simulator/traces/canneal_big0.champsimtrace")
Heartbeat CPU 8 instructions: 60000018 cycles: 23171169 heartbeat IPC: 2.603 cumulative IPC: 2.589 (Simulation time: 02 hr 31 min 17 sec)
*** Reached end of trace: (12, "/home/harshraj/COALESCE-Hashed-Perceptron-Cache-Replacement-Policy/simulator/traces/canneal_big0.champsimtrace")
*** Reached end of trace: (0, "/home/harshraj/COALESCE-Hashed-Perceptron-Cache-Replacement-Policy/simulator/traces/canneal_big0.champsimtrace")
Heartbeat CPU 0 instructions: 60000018 cycles: 23194521 heartbeat IPC: 2.6 cumulative IPC: 2.587 (Simulation time: 02 hr 31 min 26 sec)
Heartbeat CPU 12 instructions: 60000018 cycles: 23194521 heartbeat IPC: 2.6 cumulative IPC: 2.587 (Simulation time: 02 hr 31 min 26 sec)
*** Reached end of trace: (4, "/home/harshraj/COALESCE-Hashed-Perceptron-Cache-Replacement-Policy/simulator/traces/canneal_big0.champsimtrace")
Heartbeat CPU 4 instructions: 60000018 cycles: 23246762 heartbeat IPC: 2.594 cumulative IPC: 2.581 (Simulation time: 02 hr 31 min 52 sec)
*** Reached end of trace: (11, "/home/harshraj/COALESCE-Hashed-Perceptron-Cache-Replacement-Policy/simulator/traces/canneal_big3.champsimtrace")
*** Reached end of trace: (2, "/home/harshraj/COALESCE-Hashed-Perceptron-Cache-Replacement-Policy/simulator/traces/canneal_big2.champsimtrace")
*** Reached end of trace: (7, "/home/harshraj/COALESCE-Hashed-Perceptron-Cache-Replacement-Policy/simulator/traces/canneal_big3.champsimtrace")
*** Reached end of trace: (3, "/home/harshraj/COALESCE-Hashed-Perceptron-Cache-Replacement-Policy/simulator/traces/canneal_big3.champsimtrace")
*** Reached end of trace: (15, "/home/harshraj/COALESCE-Hashed-Perceptron-Cache-Replacement-Policy/simulator/traces/canneal_big3.champsimtrace")
*** Reached end of trace: (10, "/home/harshraj/COALESCE-Hashed-Perceptron-Cache-Replacement-Policy/simulator/traces/canneal_big2.champsimtrace")
*** Reached end of trace: (6, "/home/harshraj/COALESCE-Hashed-Perceptron-Cache-Replacement-Policy/simulator/traces/canneal_big2.champsimtrace")
*** Reached end of trace: (14, "/home/harshraj/COALESCE-Hashed-Perceptron-Cache-Replacement-Policy/simulator/traces/canneal_big2.champsimtrace")
*** Reached end of trace: (13, "/home/harshraj/COALESCE-Hashed-Perceptron-Cache-Replacement-Policy/simulator/traces/canneal_big1.champsimtrace")
*** Reached end of trace: (1, "/home/harshraj/COALESCE-Hashed-Perceptron-Cache-Replacement-Policy/simulator/traces/canneal_big1.champsimtrace")
Heartbeat CPU 13 instructions: 40000006 cycles: 24069682 heartbeat IPC: 1.76 cumulative IPC: 1.662 (Simulation time: 02 hr 37 min 58 sec)
Heartbeat CPU 1 instructions: 40000006 cycles: 24069685 heartbeat IPC: 1.76 cumulative IPC: 1.662 (Simulation time: 02 hr 37 min 58 sec)
*** Reached end of trace: (9, "/home/harshraj/COALESCE-Hashed-Perceptron-Cache-Replacement-Policy/simulator/traces/canneal_big1.champsimtrace")
Heartbeat CPU 9 instructions: 40000006 cycles: 24073665 heartbeat IPC: 1.759 cumulative IPC: 1.662 (Simulation time: 02 hr 38 min 00 sec)
*** Reached end of trace: (5, "/home/harshraj/COALESCE-Hashed-Perceptron-Cache-Replacement-Policy/simulator/traces/canneal_big1.champsimtrace")
Heartbeat CPU 5 instructions: 40000006 cycles: 24125199 heartbeat IPC: 1.755 cumulative IPC: 1.658 (Simulation time: 02 hr 38 min 22 sec)
*** Reached end of trace: (11, "/home/harshraj/COALESCE-Hashed-Perceptron-Cache-Replacement-Policy/simulator/traces/canneal_big3.champsimtrace")
Heartbeat CPU 11 instructions: 100000001 cycles: 25003263 heartbeat IPC: 4 cumulative IPC: 3.999 (Simulation time: 02 hr 44 min 45 sec)
*** Reached end of trace: (2, "/home/harshraj/COALESCE-Hashed-Perceptron-Cache-Replacement-Policy/simulator/traces/canneal_big2.champsimtrace")
*** Reached end of trace: (7, "/home/harshraj/COALESCE-Hashed-Perceptron-Cache-Replacement-Policy/simulator/traces/canneal_big3.champsimtrace")
*** Reached end of trace: (3, "/home/harshraj/COALESCE-Hashed-Perceptron-Cache-Replacement-Policy/simulator/traces/canneal_big3.champsimtrace")
*** Reached end of trace: (15, "/home/harshraj/COALESCE-Hashed-Perceptron-Cache-Replacement-Policy/simulator/traces/canneal_big3.champsimtrace")
Heartbeat CPU 2 instructions: 100000001 cycles: 25003412 heartbeat IPC: 4 cumulative IPC: 3.999 (Simulation time: 02 hr 44 min 45 sec)
Heartbeat CPU 7 instructions: 100000001 cycles: 25003441 heartbeat IPC: 4 cumulative IPC: 3.999 (Simulation time: 02 hr 44 min 45 sec)
Heartbeat CPU 3 instructions: 100000001 cycles: 25003453 heartbeat IPC: 4 cumulative IPC: 3.999 (Simulation time: 02 hr 44 min 45 sec)
Heartbeat CPU 15 instructions: 100000001 cycles: 25003461 heartbeat IPC: 4 cumulative IPC: 3.999 (Simulation time: 02 hr 44 min 45 sec)
*** Reached end of trace: (10, "/home/harshraj/COALESCE-Hashed-Perceptron-Cache-Replacement-Policy/simulator/traces/canneal_big2.champsimtrace")
*** Reached end of trace: (6, "/home/harshraj/COALESCE-Hashed-Perceptron-Cache-Replacement-Policy/simulator/traces/canneal_big2.champsimtrace")
*** Reached end of trace: (14, "/home/harshraj/COALESCE-Hashed-Perceptron-Cache-Replacement-Policy/simulator/traces/canneal_big2.champsimtrace")
Heartbeat CPU 10 instructions: 100000001 cycles: 25003606 heartbeat IPC: 4 cumulative IPC: 3.999 (Simulation time: 02 hr 44 min 45 sec)
Heartbeat CPU 6 instructions: 100000001 cycles: 25003608 heartbeat IPC: 4 cumulative IPC: 3.999 (Simulation time: 02 hr 44 min 45 sec)
Heartbeat CPU 14 instructions: 100000001 cycles: 25003612 heartbeat IPC: 4 cumulative IPC: 3.999 (Simulation time: 02 hr 44 min 45 sec)
*** Reached end of trace: (8, "/home/harshraj/COALESCE-Hashed-Perceptron-Cache-Replacement-Policy/simulator/traces/canneal_big0.champsimtrace")
*** Reached end of trace: (12, "/home/harshraj/COALESCE-Hashed-Perceptron-Cache-Replacement-Policy/simulator/traces/canneal_big0.champsimtrace")
*** Reached end of trace: (0, "/home/harshraj/COALESCE-Hashed-Perceptron-Cache-Replacement-Policy/simulator/traces/canneal_big0.champsimtrace")
*** Reached end of trace: (4, "/home/harshraj/COALESCE-Hashed-Perceptron-Cache-Replacement-Policy/simulator/traces/canneal_big0.champsimtrace")
*** Reached end of trace: (11, "/home/harshraj/COALESCE-Hashed-Perceptron-Cache-Replacement-Policy/simulator/traces/canneal_big3.champsimtrace")
*** Reached end of trace: (2, "/home/harshraj/COALESCE-Hashed-Perceptron-Cache-Replacement-Policy/simulator/traces/canneal_big2.champsimtrace")
*** Reached end of trace: (7, "/home/harshraj/COALESCE-Hashed-Perceptron-Cache-Replacement-Policy/simulator/traces/canneal_big3.champsimtrace")
*** Reached end of trace: (3, "/home/harshraj/COALESCE-Hashed-Perceptron-Cache-Replacement-Policy/simulator/traces/canneal_big3.champsimtrace")
*** Reached end of trace: (15, "/home/harshraj/COALESCE-Hashed-Perceptron-Cache-Replacement-Policy/simulator/traces/canneal_big3.champsimtrace")
*** Reached end of trace: (10, "/home/harshraj/COALESCE-Hashed-Perceptron-Cache-Replacement-Policy/simulator/traces/canneal_big2.champsimtrace")
*** Reached end of trace: (6, "/home/harshraj/COALESCE-Hashed-Perceptron-Cache-Replacement-Policy/simulator/traces/canneal_big2.champsimtrace")
*** Reached end of trace: (14, "/home/harshraj/COALESCE-Hashed-Perceptron-Cache-Replacement-Policy/simulator/traces/canneal_big2.champsimtrace")
*** Reached end of trace: (13, "/home/harshraj/COALESCE-Hashed-Perceptron-Cache-Replacement-Policy/simulator/traces/canneal_big1.champsimtrace")
*** Reached end of trace: (1, "/home/harshraj/COALESCE-Hashed-Perceptron-Cache-Replacement-Policy/simulator/traces/canneal_big1.champsimtrace")
*** Reached end of trace: (9, "/home/harshraj/COALESCE-Hashed-Perceptron-Cache-Replacement-Policy/simulator/traces/canneal_big1.champsimtrace")
*** Reached end of trace: (5, "/home/harshraj/COALESCE-Hashed-Perceptron-Cache-Replacement-Policy/simulator/traces/canneal_big1.champsimtrace")
*** Reached end of trace: (8, "/home/harshraj/COALESCE-Hashed-Perceptron-Cache-Replacement-Policy/simulator/traces/canneal_big0.champsimtrace")
Heartbeat CPU 8 instructions: 70000021 cycles: 27012270 heartbeat IPC: 2.603 cumulative IPC: 2.591 (Simulation time: 02 hr 57 min 34 sec)
*** Reached end of trace: (12, "/home/harshraj/COALESCE-Hashed-Perceptron-Cache-Replacement-Policy/simulator/traces/canneal_big0.champsimtrace")
*** Reached end of trace: (0, "/home/harshraj/COALESCE-Hashed-Perceptron-Cache-Replacement-Policy/simulator/traces/canneal_big0.champsimtrace")
Heartbeat CPU 0 instructions: 70000021 cycles: 27040287 heartbeat IPC: 2.6 cumulative IPC: 2.589 (Simulation time: 02 hr 57 min 43 sec)
Heartbeat CPU 12 instructions: 70000021 cycles: 27040287 heartbeat IPC: 2.6 cumulative IPC: 2.589 (Simulation time: 02 hr 57 min 43 sec)
*** Reached end of trace: (4, "/home/harshraj/COALESCE-Hashed-Perceptron-Cache-Replacement-Policy/simulator/traces/canneal_big0.champsimtrace")
Heartbeat CPU 4 instructions: 70000021 cycles: 27101903 heartbeat IPC: 2.594 cumulative IPC: 2.583 (Simulation time: 02 hr 58 min 03 sec)
*** Reached end of trace: (11, "/home/harshraj/COALESCE-Hashed-Perceptron-Cache-Replacement-Policy/simulator/traces/canneal_big3.champsimtrace")
Heartbeat CPU 11 instructions: 110000001 cycles: 27503263 heartbeat IPC: 4 cumulative IPC: 4 (Simulation time: 03 hr 00 min 10 sec)
*** Reached end of trace: (2, "/home/harshraj/COALESCE-Hashed-Perceptron-Cache-Replacement-Policy/simulator/traces/canneal_big2.champsimtrace")
*** Reached end of trace: (7, "/home/harshraj/COALESCE-Hashed-Perceptron-Cache-Replacement-Policy/simulator/traces/canneal_big3.champsimtrace")
*** Reached end of trace: (3, "/home/harshraj/COALESCE-Hashed-Perceptron-Cache-Replacement-Policy/simulator/traces/canneal_big3.champsimtrace")
*** Reached end of trace: (15, "/home/harshraj/COALESCE-Hashed-Perceptron-Cache-Replacement-Policy/simulator/traces/canneal_big3.champsimtrace")
Heartbeat CPU 2 instructions: 110000001 cycles: 27503412 heartbeat IPC: 4 cumulative IPC: 4 (Simulation time: 03 hr 00 min 10 sec)
Heartbeat CPU 7 instructions: 110000001 cycles: 27503441 heartbeat IPC: 4 cumulative IPC: 3.999 (Simulation time: 03 hr 00 min 10 sec)
Heartbeat CPU 3 instructions: 110000001 cycles: 27503453 heartbeat IPC: 4 cumulative IPC: 3.999 (Simulation time: 03 hr 00 min 10 sec)
Heartbeat CPU 15 instructions: 110000001 cycles: 27503461 heartbeat IPC: 4 cumulative IPC: 3.999 (Simulation time: 03 hr 00 min 10 sec)
*** Reached end of trace: (10, "/home/harshraj/COALESCE-Hashed-Perceptron-Cache-Replacement-Policy/simulator/traces/canneal_big2.champsimtrace")
*** Reached end of trace: (6, "/home/harshraj/COALESCE-Hashed-Perceptron-Cache-Replacement-Policy/simulator/traces/canneal_big2.champsimtrace")
*** Reached end of trace: (14, "/home/harshraj/COALESCE-Hashed-Perceptron-Cache-Replacement-Policy/simulator/traces/canneal_big2.champsimtrace")
Heartbeat CPU 10 instructions: 110000001 cycles: 27503606 heartbeat IPC: 4 cumulative IPC: 3.999 (Simulation time: 03 hr 00 min 10 sec)
Heartbeat CPU 6 instructions: 110000001 cycles: 27503608 heartbeat IPC: 4 cumulative IPC: 3.999 (Simulation time: 03 hr 00 min 10 sec)
Heartbeat CPU 14 instructions: 110000001 cycles: 27503612 heartbeat IPC: 4 cumulative IPC: 3.999 (Simulation time: 03 hr 00 min 10 sec)
*** Reached end of trace: (11, "/home/harshraj/COALESCE-Hashed-Perceptron-Cache-Replacement-Policy/simulator/traces/canneal_big3.champsimtrace")
*** Reached end of trace: (2, "/home/harshraj/COALESCE-Hashed-Perceptron-Cache-Replacement-Policy/simulator/traces/canneal_big2.champsimtrace")
*** Reached end of trace: (7, "/home/harshraj/COALESCE-Hashed-Perceptron-Cache-Replacement-Policy/simulator/traces/canneal_big3.champsimtrace")
*** Reached end of trace: (3, "/home/harshraj/COALESCE-Hashed-Perceptron-Cache-Replacement-Policy/simulator/traces/canneal_big3.champsimtrace")
*** Reached end of trace: (15, "/home/harshraj/COALESCE-Hashed-Perceptron-Cache-Replacement-Policy/simulator/traces/canneal_big3.champsimtrace")
*** Reached end of trace: (10, "/home/harshraj/COALESCE-Hashed-Perceptron-Cache-Replacement-Policy/simulator/traces/canneal_big2.champsimtrace")
*** Reached end of trace: (6, "/home/harshraj/COALESCE-Hashed-Perceptron-Cache-Replacement-Policy/simulator/traces/canneal_big2.champsimtrace")
*** Reached end of trace: (14, "/home/harshraj/COALESCE-Hashed-Perceptron-Cache-Replacement-Policy/simulator/traces/canneal_big2.champsimtrace")
*** Reached end of trace: (8, "/home/harshraj/COALESCE-Hashed-Perceptron-Cache-Replacement-Policy/simulator/traces/canneal_big0.champsimtrace")
*** Reached end of trace: (12, "/home/harshraj/COALESCE-Hashed-Perceptron-Cache-Replacement-Policy/simulator/traces/canneal_big0.champsimtrace")
*** Reached end of trace: (0, "/home/harshraj/COALESCE-Hashed-Perceptron-Cache-Replacement-Policy/simulator/traces/canneal_big0.champsimtrace")
*** Reached end of trace: (4, "/home/harshraj/COALESCE-Hashed-Perceptron-Cache-Replacement-Policy/simulator/traces/canneal_big0.champsimtrace")
*** Reached end of trace: (13, "/home/harshraj/COALESCE-Hashed-Perceptron-Cache-Replacement-Policy/simulator/traces/canneal_big1.champsimtrace")
*** Reached end of trace: (1, "/home/harshraj/COALESCE-Hashed-Perceptron-Cache-Replacement-Policy/simulator/traces/canneal_big1.champsimtrace")
Warmup finished CPU 13 instructions: 50000000 cycles: 29751911 cumulative IPC: 1.681 (Simulation time: 03 hr 15 min 31 sec)
Warmup finished CPU 1 instructions: 50000000 cycles: 29751925 cumulative IPC: 1.681 (Simulation time: 03 hr 15 min 31 sec)
Heartbeat CPU 13 instructions: 50000008 cycles: 29751933 heartbeat IPC: 1.76 cumulative IPC: 1.681 (Simulation time: 03 hr 15 min 31 sec)
Heartbeat CPU 1 instructions: 50000008 cycles: 29751942 heartbeat IPC: 1.76 cumulative IPC: 1.681 (Simulation time: 03 hr 15 min 31 sec)
*** Reached end of trace: (9, "/home/harshraj/COALESCE-Hashed-Perceptron-Cache-Replacement-Policy/simulator/traces/canneal_big1.champsimtrace")
Warmup finished CPU 9 instructions: 50000000 cycles: 29758095 cumulative IPC: 1.68 (Simulation time: 03 hr 15 min 34 sec)
Heartbeat CPU 9 instructions: 50000008 cycles: 29758112 heartbeat IPC: 1.759 cumulative IPC: 1.68 (Simulation time: 03 hr 15 min 34 sec)
*** Reached end of trace: (5, "/home/harshraj/COALESCE-Hashed-Perceptron-Cache-Replacement-Policy/simulator/traces/canneal_big1.champsimtrace")
Warmup finished CPU 5 instructions: 50000000 cycles: 29826130 cumulative IPC: 1.676 (Simulation time: 03 hr 16 min 05 sec)
Warmup complete CPU 9 instructions: 50115768 cycles: 29826130 cumulative IPC: 1.68 (Simulation time: 03 hr 16 min 05 sec)
Warmup complete CPU 8 instructions: 77511229 cycles: 29826130 cumulative IPC: 2.599 (Simulation time: 03 hr 16 min 05 sec)
Warmup complete CPU 7 instructions: 119290757 cycles: 29826130 cumulative IPC: 4 (Simulation time: 03 hr 16 min 05 sec)
Warmup complete CPU 6 instructions: 119290089 cycles: 29826130 cumulative IPC: 4 (Simulation time: 03 hr 16 min 05 sec)
Warmup complete CPU 5 instructions: 50000000 cycles: 29826130 cumulative IPC: 1.676 (Simulation time: 03 hr 16 min 05 sec)
Warmup complete CPU 4 instructions: 77274299 cycles: 29826130 cumulative IPC: 2.591 (Simulation time: 03 hr 16 min 05 sec)
Warmup complete CPU 3 instructions: 119290709 cycles: 29826130 cumulative IPC: 4 (Simulation time: 03 hr 16 min 05 sec)
Warmup complete CPU 2 instructions: 119290873 cycles: 29826130 cumulative IPC: 4 (Simulation time: 03 hr 16 min 05 sec)
Warmup complete CPU 15 instructions: 119290677 cycles: 29826130 cumulative IPC: 4 (Simulation time: 03 hr 16 min 05 sec)
Warmup complete CPU 14 instructions: 119290073 cycles: 29826130 cumulative IPC: 4 (Simulation time: 03 hr 16 min 05 sec)
Warmup complete CPU 13 instructions: 50122994 cycles: 29826130 cumulative IPC: 1.681 (Simulation time: 03 hr 16 min 05 sec)
Warmup complete CPU 12 instructions: 77439849 cycles: 29826130 cumulative IPC: 2.596 (Simulation time: 03 hr 16 min 05 sec)
Warmup complete CPU 11 instructions: 119291469 cycles: 29826130 cumulative IPC: 4 (Simulation time: 03 hr 16 min 05 sec)
Warmup complete CPU 10 instructions: 119290097 cycles: 29826130 cumulative IPC: 4 (Simulation time: 03 hr 16 min 05 sec)
Warmup complete CPU 1 instructions: 50122994 cycles: 29826130 cumulative IPC: 1.681 (Simulation time: 03 hr 16 min 05 sec)
Warmup complete CPU 0 instructions: 77439849 cycles: 29826130 cumulative IPC: 2.596 (Simulation time: 03 hr 16 min 05 sec)
Heartbeat CPU 5 instructions: 50000008 cycles: 29826337 heartbeat IPC: 1.754 cumulative IPC: 0.03865 (Simulation time: 03 hr 16 min 06 sec)
*** Reached end of trace: (11, "/home/harshraj/COALESCE-Hashed-Perceptron-Cache-Replacement-Policy/simulator/traces/canneal_big3.champsimtrace")
Heartbeat CPU 11 instructions: 120000001 cycles: 30003263 heartbeat IPC: 4 cumulative IPC: 4 (Simulation time: 03 hr 17 min 24 sec)
*** Reached end of trace: (2, "/home/harshraj/COALESCE-Hashed-Perceptron-Cache-Replacement-Policy/simulator/traces/canneal_big2.champsimtrace")
*** Reached end of trace: (7, "/home/harshraj/COALESCE-Hashed-Perceptron-Cache-Replacement-Policy/simulator/traces/canneal_big3.champsimtrace")
*** Reached end of trace: (3, "/home/harshraj/COALESCE-Hashed-Perceptron-Cache-Replacement-Policy/simulator/traces/canneal_big3.champsimtrace")
*** Reached end of trace: (15, "/home/harshraj/COALESCE-Hashed-Perceptron-Cache-Replacement-Policy/simulator/traces/canneal_big3.champsimtrace")
Heartbeat CPU 2 instructions: 120000001 cycles: 30003412 heartbeat IPC: 4 cumulative IPC: 4 (Simulation time: 03 hr 17 min 24 sec)
Heartbeat CPU 7 instructions: 120000001 cycles: 30003441 heartbeat IPC: 4 cumulative IPC: 4 (Simulation time: 03 hr 17 min 24 sec)
Heartbeat CPU 3 instructions: 120000001 cycles: 30003453 heartbeat IPC: 4 cumulative IPC: 4 (Simulation time: 03 hr 17 min 24 sec)
Heartbeat CPU 15 instructions: 120000001 cycles: 30003461 heartbeat IPC: 4 cumulative IPC: 4 (Simulation time: 03 hr 17 min 24 sec)
*** Reached end of trace: (10, "/home/harshraj/COALESCE-Hashed-Perceptron-Cache-Replacement-Policy/simulator/traces/canneal_big2.champsimtrace")
*** Reached end of trace: (6, "/home/harshraj/COALESCE-Hashed-Perceptron-Cache-Replacement-Policy/simulator/traces/canneal_big2.champsimtrace")
*** Reached end of trace: (14, "/home/harshraj/COALESCE-Hashed-Perceptron-Cache-Replacement-Policy/simulator/traces/canneal_big2.champsimtrace")
Heartbeat CPU 10 instructions: 120000001 cycles: 30003606 heartbeat IPC: 4 cumulative IPC: 4 (Simulation time: 03 hr 17 min 24 sec)
Heartbeat CPU 6 instructions: 120000001 cycles: 30003608 heartbeat IPC: 4 cumulative IPC: 4 (Simulation time: 03 hr 17 min 24 sec)
Heartbeat CPU 14 instructions: 120000001 cycles: 30003612 heartbeat IPC: 4 cumulative IPC: 4 (Simulation time: 03 hr 17 min 24 sec)
*** Reached end of trace: (12, "/home/harshraj/COALESCE-Hashed-Perceptron-Cache-Replacement-Policy/simulator/traces/canneal_big0.champsimtrace")
*** Reached end of trace: (0, "/home/harshraj/COALESCE-Hashed-Perceptron-Cache-Replacement-Policy/simulator/traces/canneal_big0.champsimtrace")
*** Reached end of trace: (8, "/home/harshraj/COALESCE-Hashed-Perceptron-Cache-Replacement-Policy/simulator/traces/canneal_big0.champsimtrace")
Heartbeat CPU 0 instructions: 80000024 cycles: 30845062 heartbeat IPC: 2.628 cumulative IPC: 2.513 (Simulation time: 03 hr 23 min 18 sec)
Heartbeat CPU 12 instructions: 80000024 cycles: 30845062 heartbeat IPC: 2.628 cumulative IPC: 2.513 (Simulation time: 03 hr 23 min 18 sec)
Heartbeat CPU 8 instructions: 80000024 cycles: 30845063 heartbeat IPC: 2.609 cumulative IPC: 2.443 (Simulation time: 03 hr 23 min 18 sec)
*** Reached end of trace: (4, "/home/harshraj/COALESCE-Hashed-Perceptron-Cache-Replacement-Policy/simulator/traces/canneal_big0.champsimtrace")
Heartbeat CPU 4 instructions: 80000024 cycles: 30909086 heartbeat IPC: 2.627 cumulative IPC: 2.517 (Simulation time: 03 hr 23 min 45 sec)
*** Reached end of trace: (11, "/home/harshraj/COALESCE-Hashed-Perceptron-Cache-Replacement-Policy/simulator/traces/canneal_big3.champsimtrace")
*** Reached end of trace: (2, "/home/harshraj/COALESCE-Hashed-Perceptron-Cache-Replacement-Policy/simulator/traces/canneal_big2.champsimtrace")
*** Reached end of trace: (7, "/home/harshraj/COALESCE-Hashed-Perceptron-Cache-Replacement-Policy/simulator/traces/canneal_big3.champsimtrace")
*** Reached end of trace: (3, "/home/harshraj/COALESCE-Hashed-Perceptron-Cache-Replacement-Policy/simulator/traces/canneal_big3.champsimtrace")
*** Reached end of trace: (15, "/home/harshraj/COALESCE-Hashed-Perceptron-Cache-Replacement-Policy/simulator/traces/canneal_big3.champsimtrace")
*** Reached end of trace: (10, "/home/harshraj/COALESCE-Hashed-Perceptron-Cache-Replacement-Policy/simulator/traces/canneal_big2.champsimtrace")
*** Reached end of trace: (6, "/home/harshraj/COALESCE-Hashed-Perceptron-Cache-Replacement-Policy/simulator/traces/canneal_big2.champsimtrace")
*** Reached end of trace: (14, "/home/harshraj/COALESCE-Hashed-Perceptron-Cache-Replacement-Policy/simulator/traces/canneal_big2.champsimtrace")
*** Reached end of trace: (11, "/home/harshraj/COALESCE-Hashed-Perceptron-Cache-Replacement-Policy/simulator/traces/canneal_big3.champsimtrace")
Heartbeat CPU 11 instructions: 130000001 cycles: 32503263 heartbeat IPC: 4 cumulative IPC: 4 (Simulation time: 03 hr 33 min 39 sec)
*** Reached end of trace: (2, "/home/harshraj/COALESCE-Hashed-Perceptron-Cache-Replacement-Policy/simulator/traces/canneal_big2.champsimtrace")
*** Reached end of trace: (7, "/home/harshraj/COALESCE-Hashed-Perceptron-Cache-Replacement-Policy/simulator/traces/canneal_big3.champsimtrace")
*** Reached end of trace: (3, "/home/harshraj/COALESCE-Hashed-Perceptron-Cache-Replacement-Policy/simulator/traces/canneal_big3.champsimtrace")
*** Reached end of trace: (15, "/home/harshraj/COALESCE-Hashed-Perceptron-Cache-Replacement-Policy/simulator/traces/canneal_big3.champsimtrace")
Heartbeat CPU 2 instructions: 130000001 cycles: 32503412 heartbeat IPC: 4 cumulative IPC: 4 (Simulation time: 03 hr 33 min 39 sec)
Heartbeat CPU 7 instructions: 130000001 cycles: 32503441 heartbeat IPC: 4 cumulative IPC: 4 (Simulation time: 03 hr 33 min 39 sec)
Heartbeat CPU 3 instructions: 130000001 cycles: 32503453 heartbeat IPC: 4 cumulative IPC: 4 (Simulation time: 03 hr 33 min 39 sec)
Heartbeat CPU 15 instructions: 130000001 cycles: 32503461 heartbeat IPC: 4 cumulative IPC: 4 (Simulation time: 03 hr 33 min 39 sec)
*** Reached end of trace: (10, "/home/harshraj/COALESCE-Hashed-Perceptron-Cache-Replacement-Policy/simulator/traces/canneal_big2.champsimtrace")
*** Reached end of trace: (6, "/home/harshraj/COALESCE-Hashed-Perceptron-Cache-Replacement-Policy/simulator/traces/canneal_big2.champsimtrace")
*** Reached end of trace: (14, "/home/harshraj/COALESCE-Hashed-Perceptron-Cache-Replacement-Policy/simulator/traces/canneal_big2.champsimtrace")
Heartbeat CPU 10 instructions: 130000001 cycles: 32503606 heartbeat IPC: 4 cumulative IPC: 4 (Simulation time: 03 hr 33 min 39 sec)
Heartbeat CPU 6 instructions: 130000001 cycles: 32503608 heartbeat IPC: 4 cumulative IPC: 4 (Simulation time: 03 hr 33 min 39 sec)
Heartbeat CPU 14 instructions: 130000001 cycles: 32503612 heartbeat IPC: 4 cumulative IPC: 4 (Simulation time: 03 hr 33 min 39 sec)
*** Reached end of trace: (12, "/home/harshraj/COALESCE-Hashed-Perceptron-Cache-Replacement-Policy/simulator/traces/canneal_big0.champsimtrace")
*** Reached end of trace: (0, "/home/harshraj/COALESCE-Hashed-Perceptron-Cache-Replacement-Policy/simulator/traces/canneal_big0.champsimtrace")
*** Reached end of trace: (8, "/home/harshraj/COALESCE-Hashed-Perceptron-Cache-Replacement-Policy/simulator/traces/canneal_big0.champsimtrace")
*** Reached end of trace: (4, "/home/harshraj/COALESCE-Hashed-Perceptron-Cache-Replacement-Policy/simulator/traces/canneal_big0.champsimtrace")
*** Reached end of trace: (11, "/home/harshraj/COALESCE-Hashed-Perceptron-Cache-Replacement-Policy/simulator/traces/canneal_big3.champsimtrace")
*** Reached end of trace: (2, "/home/harshraj/COALESCE-Hashed-Perceptron-Cache-Replacement-Policy/simulator/traces/canneal_big2.champsimtrace")
*** Reached end of trace: (7, "/home/harshraj/COALESCE-Hashed-Perceptron-Cache-Replacement-Policy/simulator/traces/canneal_big3.champsimtrace")
*** Reached end of trace: (3, "/home/harshraj/COALESCE-Hashed-Perceptron-Cache-Replacement-Policy/simulator/traces/canneal_big3.champsimtrace")
*** Reached end of trace: (15, "/home/harshraj/COALESCE-Hashed-Perceptron-Cache-Replacement-Policy/simulator/traces/canneal_big3.champsimtrace")
*** Reached end of trace: (10, "/home/harshraj/COALESCE-Hashed-Perceptron-Cache-Replacement-Policy/simulator/traces/canneal_big2.champsimtrace")
*** Reached end of trace: (6, "/home/harshraj/COALESCE-Hashed-Perceptron-Cache-Replacement-Policy/simulator/traces/canneal_big2.champsimtrace")
*** Reached end of trace: (14, "/home/harshraj/COALESCE-Hashed-Perceptron-Cache-Replacement-Policy/simulator/traces/canneal_big2.champsimtrace")
*** Reached end of trace: (11, "/home/harshraj/COALESCE-Hashed-Perceptron-Cache-Replacement-Policy/simulator/traces/canneal_big3.champsimtrace")
Heartbeat CPU 11 instructions: 140000001 cycles: 35003263 heartbeat IPC: 4 cumulative IPC: 4 (Simulation time: 03 hr 50 min 10 sec)
*** Reached end of trace: (2, "/home/harshraj/COALESCE-Hashed-Perceptron-Cache-Replacement-Policy/simulator/traces/canneal_big2.champsimtrace")
*** Reached end of trace: (7, "/home/harshraj/COALESCE-Hashed-Perceptron-Cache-Replacement-Policy/simulator/traces/canneal_big3.champsimtrace")
*** Reached end of trace: (3, "/home/harshraj/COALESCE-Hashed-Perceptron-Cache-Replacement-Policy/simulator/traces/canneal_big3.champsimtrace")
*** Reached end of trace: (15, "/home/harshraj/COALESCE-Hashed-Perceptron-Cache-Replacement-Policy/simulator/traces/canneal_big3.champsimtrace")
Heartbeat CPU 2 instructions: 140000001 cycles: 35003412 heartbeat IPC: 4 cumulative IPC: 4 (Simulation time: 03 hr 50 min 10 sec)
Heartbeat CPU 7 instructions: 140000001 cycles: 35003441 heartbeat IPC: 4 cumulative IPC: 4 (Simulation time: 03 hr 50 min 10 sec)
Heartbeat CPU 3 instructions: 140000001 cycles: 35003453 heartbeat IPC: 4 cumulative IPC: 4 (Simulation time: 03 hr 50 min 10 sec)
Heartbeat CPU 15 instructions: 140000001 cycles: 35003461 heartbeat IPC: 4 cumulative IPC: 4 (Simulation time: 03 hr 50 min 10 sec)
*** Reached end of trace: (10, "/home/harshraj/COALESCE-Hashed-Perceptron-Cache-Replacement-Policy/simulator/traces/canneal_big2.champsimtrace")
*** Reached end of trace: (6, "/home/harshraj/COALESCE-Hashed-Perceptron-Cache-Replacement-Policy/simulator/traces/canneal_big2.champsimtrace")
*** Reached end of trace: (14, "/home/harshraj/COALESCE-Hashed-Perceptron-Cache-Replacement-Policy/simulator/traces/canneal_big2.champsimtrace")
Heartbeat CPU 10 instructions: 140000001 cycles: 35003606 heartbeat IPC: 4 cumulative IPC: 4 (Simulation time: 03 hr 50 min 10 sec)
Heartbeat CPU 6 instructions: 140000001 cycles: 35003608 heartbeat IPC: 4 cumulative IPC: 4 (Simulation time: 03 hr 50 min 10 sec)
Heartbeat CPU 14 instructions: 140000001 cycles: 35003612 heartbeat IPC: 4 cumulative IPC: 4 (Simulation time: 03 hr 50 min 10 sec)
*** Reached end of trace: (12, "/home/harshraj/COALESCE-Hashed-Perceptron-Cache-Replacement-Policy/simulator/traces/canneal_big0.champsimtrace")
*** Reached end of trace: (0, "/home/harshraj/COALESCE-Hashed-Perceptron-Cache-Replacement-Policy/simulator/traces/canneal_big0.champsimtrace")
*** Reached end of trace: (8, "/home/harshraj/COALESCE-Hashed-Perceptron-Cache-Replacement-Policy/simulator/traces/canneal_big0.champsimtrace")
*** Reached end of trace: (4, "/home/harshraj/COALESCE-Hashed-Perceptron-Cache-Replacement-Policy/simulator/traces/canneal_big0.champsimtrace")
Heartbeat CPU 0 instructions: 90000024 cycles: 35263016 heartbeat IPC: 2.263 cumulative IPC: 2.31 (Simulation time: 03 hr 51 min 34 sec)
Heartbeat CPU 12 instructions: 90000024 cycles: 35263016 heartbeat IPC: 2.263 cumulative IPC: 2.31 (Simulation time: 03 hr 51 min 34 sec)
Heartbeat CPU 8 instructions: 90000024 cycles: 35263017 heartbeat IPC: 2.263 cumulative IPC: 2.297 (Simulation time: 03 hr 51 min 34 sec)
Heartbeat CPU 4 instructions: 90000024 cycles: 35263017 heartbeat IPC: 2.297 cumulative IPC: 2.341 (Simulation time: 03 hr 51 min 34 sec)
*** Reached end of trace: (11, "/home/harshraj/COALESCE-Hashed-Perceptron-Cache-Replacement-Policy/simulator/traces/canneal_big3.champsimtrace")
*** Reached end of trace: (2, "/home/harshraj/COALESCE-Hashed-Perceptron-Cache-Replacement-Policy/simulator/traces/canneal_big2.champsimtrace")
*** Reached end of trace: (7, "/home/harshraj/COALESCE-Hashed-Perceptron-Cache-Replacement-Policy/simulator/traces/canneal_big3.champsimtrace")
*** Reached end of trace: (3, "/home/harshraj/COALESCE-Hashed-Perceptron-Cache-Replacement-Policy/simulator/traces/canneal_big3.champsimtrace")
*** Reached end of trace: (15, "/home/harshraj/COALESCE-Hashed-Perceptron-Cache-Replacement-Policy/simulator/traces/canneal_big3.champsimtrace")
*** Reached end of trace: (10, "/home/harshraj/COALESCE-Hashed-Perceptron-Cache-Replacement-Policy/simulator/traces/canneal_big2.champsimtrace")
*** Reached end of trace: (6, "/home/harshraj/COALESCE-Hashed-Perceptron-Cache-Replacement-Policy/simulator/traces/canneal_big2.champsimtrace")
*** Reached end of trace: (14, "/home/harshraj/COALESCE-Hashed-Perceptron-Cache-Replacement-Policy/simulator/traces/canneal_big2.champsimtrace")
*** Reached end of trace: (12, "/home/harshraj/COALESCE-Hashed-Perceptron-Cache-Replacement-Policy/simulator/traces/canneal_big0.champsimtrace")
*** Reached end of trace: (0, "/home/harshraj/COALESCE-Hashed-Perceptron-Cache-Replacement-Policy/simulator/traces/canneal_big0.champsimtrace")
*** Reached end of trace: (8, "/home/harshraj/COALESCE-Hashed-Perceptron-Cache-Replacement-Policy/simulator/traces/canneal_big0.champsimtrace")
*** Reached end of trace: (4, "/home/harshraj/COALESCE-Hashed-Perceptron-Cache-Replacement-Policy/simulator/traces/canneal_big0.champsimtrace")
*** Reached end of trace: (11, "/home/harshraj/COALESCE-Hashed-Perceptron-Cache-Replacement-Policy/simulator/traces/canneal_big3.champsimtrace")
Heartbeat CPU 11 instructions: 150000001 cycles: 37503263 heartbeat IPC: 4 cumulative IPC: 4 (Simulation time: 04 hr 04 min 03 sec)
*** Reached end of trace: (2, "/home/harshraj/COALESCE-Hashed-Perceptron-Cache-Replacement-Policy/simulator/traces/canneal_big2.champsimtrace")
*** Reached end of trace: (7, "/home/harshraj/COALESCE-Hashed-Perceptron-Cache-Replacement-Policy/simulator/traces/canneal_big3.champsimtrace")
*** Reached end of trace: (3, "/home/harshraj/COALESCE-Hashed-Perceptron-Cache-Replacement-Policy/simulator/traces/canneal_big3.champsimtrace")
*** Reached end of trace: (15, "/home/harshraj/COALESCE-Hashed-Perceptron-Cache-Replacement-Policy/simulator/traces/canneal_big3.champsimtrace")
Heartbeat CPU 2 instructions: 150000001 cycles: 37503412 heartbeat IPC: 4 cumulative IPC: 4 (Simulation time: 04 hr 04 min 03 sec)
Heartbeat CPU 7 instructions: 150000001 cycles: 37503441 heartbeat IPC: 4 cumulative IPC: 4 (Simulation time: 04 hr 04 min 03 sec)
Heartbeat CPU 3 instructions: 150000001 cycles: 37503453 heartbeat IPC: 4 cumulative IPC: 4 (Simulation time: 04 hr 04 min 03 sec)
Heartbeat CPU 15 instructions: 150000001 cycles: 37503461 heartbeat IPC: 4 cumulative IPC: 4 (Simulation time: 04 hr 04 min 03 sec)
*** Reached end of trace: (10, "/home/harshraj/COALESCE-Hashed-Perceptron-Cache-Replacement-Policy/simulator/traces/canneal_big2.champsimtrace")
*** Reached end of trace: (6, "/home/harshraj/COALESCE-Hashed-Perceptron-Cache-Replacement-Policy/simulator/traces/canneal_big2.champsimtrace")
*** Reached end of trace: (14, "/home/harshraj/COALESCE-Hashed-Perceptron-Cache-Replacement-Policy/simulator/traces/canneal_big2.champsimtrace")
Heartbeat CPU 10 instructions: 150000001 cycles: 37503606 heartbeat IPC: 4 cumulative IPC: 4 (Simulation time: 04 hr 04 min 03 sec)
Heartbeat CPU 6 instructions: 150000001 cycles: 37503608 heartbeat IPC: 4 cumulative IPC: 4 (Simulation time: 04 hr 04 min 03 sec)
Heartbeat CPU 14 instructions: 150000001 cycles: 37503612 heartbeat IPC: 4 cumulative IPC: 4 (Simulation time: 04 hr 04 min 03 sec)
*** Reached end of trace: (11, "/home/harshraj/COALESCE-Hashed-Perceptron-Cache-Replacement-Policy/simulator/traces/canneal_big3.champsimtrace")
*** Reached end of trace: (2, "/home/harshraj/COALESCE-Hashed-Perceptron-Cache-Replacement-Policy/simulator/traces/canneal_big2.champsimtrace")
*** Reached end of trace: (7, "/home/harshraj/COALESCE-Hashed-Perceptron-Cache-Replacement-Policy/simulator/traces/canneal_big3.champsimtrace")
*** Reached end of trace: (3, "/home/harshraj/COALESCE-Hashed-Perceptron-Cache-Replacement-Policy/simulator/traces/canneal_big3.champsimtrace")
[...]
cpu12->cpu12_L2C TRANSLATION  ACCESS:          0 HIT:          0 MISS:          0 MSHR_MERGE:          0
cpu12->cpu12_L2C PREFETCH REQUESTED:          0 ISSUED:          0 USEFUL:          0 USELESS:          0
cpu12->cpu12_L2C AVERAGE MISS LATENCY: 169.8 cycles
cpu12_L2C COHERENCE INVALIDATIONS:          0
cpu12_L2C COHERENCE WRITE-HIT OTHER-SHARER EVENTS:          0
cpu12->cpu12_L1I TOTAL        ACCESS:  147848280 HIT:  147525434 MISS:     322846 MSHR_MERGE:      84014
cpu12->cpu12_L1I LOAD         ACCESS:  147848280 HIT:  147525434 MISS:     322846 MSHR_MERGE:      84014
cpu12->cpu12_L1I RFO          ACCESS:          0 HIT:          0 MISS:          0 MSHR_MERGE:          0
cpu12->cpu12_L1I PREFETCH     ACCESS:          0 HIT:          0 MISS:          0 MSHR_MERGE:          0
cpu12->cpu12_L1I WRITE        ACCESS:          0 HIT:          0 MISS:          0 MSHR_MERGE:          0
cpu12->cpu12_L1I TRANSLATION  ACCESS:          0 HIT:          0 MISS:          0 MSHR_MERGE:          0
cpu12->cpu12_L1I PREFETCH REQUESTED:          0 ISSUED:          0 USEFUL:          0 USELESS:          0
cpu12->cpu12_L1I AVERAGE MISS LATENCY: 80.87 cycles
cpu12_L1I COHERENCE INVALIDATIONS:          0
cpu12_L1I COHERENCE WRITE-HIT OTHER-SHARER EVENTS:          0
cpu12->cpu12_L1D TOTAL        ACCESS:  176183984 HIT:  151540640 MISS:   24643344 MSHR_MERGE:   18810230
cpu12->cpu12_L1D LOAD         ACCESS:   17452171 HIT:   14860869 MISS:    2591302 MSHR_MERGE:    1165449
cpu12->cpu12_L1D RFO          ACCESS:          0 HIT:          0 MISS:          0 MSHR_MERGE:          0
cpu12->cpu12_L1D PREFETCH     ACCESS:          0 HIT:          0 MISS:          0 MSHR_MERGE:          0
cpu12->cpu12_L1D WRITE        ACCESS:  158731813 HIT:  136679771 MISS:   22052042 MSHR_MERGE:   17644781
cpu12->cpu12_L1D TRANSLATION  ACCESS:          0 HIT:          0 MISS:          0 MSHR_MERGE:          0
cpu12->cpu12_L1D PREFETCH REQUESTED:          0 ISSUED:          0 USEFUL:          0 USELESS:          0
cpu12->cpu12_L1D AVERAGE MISS LATENCY: 162.8 cycles
cpu12_L1D COHERENCE INVALIDATIONS:          0
cpu12_L1D COHERENCE WRITE-HIT OTHER-SHARER EVENTS:          0
cpu12->cpu12_ITLB TOTAL        ACCESS:  123101124 HIT:  123051641 MISS:      49483 MSHR_MERGE:      19387
cpu12->cpu12_ITLB LOAD         ACCESS:  123101124 HIT:  123051641 MISS:      49483 MSHR_MERGE:      19387
cpu12->cpu12_ITLB RFO          ACCESS:          0 HIT:          0 MISS:          0 MSHR_MERGE:          0
cpu12->cpu12_ITLB PREFETCH     ACCESS:          0 HIT:          0 MISS:          0 MSHR_MERGE:          0
cpu12->cpu12_ITLB WRITE        ACCESS:          0 HIT:          0 MISS:          0 MSHR_MERGE:          0
cpu12->cpu12_ITLB TRANSLATION  ACCESS:          0 HIT:          0 MISS:          0 MSHR_MERGE:          0
cpu12->cpu12_ITLB PREFETCH REQUESTED:          0 ISSUED:          0 USEFUL:          0 USELESS:          0
cpu12->cpu12_ITLB AVERAGE MISS LATENCY: 4.003 cycles
cpu12_ITLB COHERENCE INVALIDATIONS:          0
cpu12_ITLB COHERENCE WRITE-HIT OTHER-SHARER EVENTS:          0
cpu12->cpu12_DTLB TOTAL        ACCESS:  146680482 HIT:  146297415 MISS:     383067 MSHR_MERGE:      83868
cpu12->cpu12_DTLB LOAD         ACCESS:  146680482 HIT:  146297415 MISS:     383067 MSHR_MERGE:      83868
cpu12->cpu12_DTLB RFO          ACCESS:          0 HIT:          0 MISS:          0 MSHR_MERGE:          0
cpu12->cpu12_DTLB PREFETCH     ACCESS:          0 HIT:          0 MISS:          0 MSHR_MERGE:          0
cpu12->cpu12_DTLB WRITE        ACCESS:          0 HIT:          0 MISS:          0 MSHR_MERGE:          0
cpu12->cpu12_DTLB TRANSLATION  ACCESS:          0 HIT:          0 MISS:          0 MSHR_MERGE:          0
cpu12->cpu12_DTLB PREFETCH REQUESTED:          0 ISSUED:          0 USEFUL:          0 USELESS:          0
cpu12->cpu12_DTLB AVERAGE MISS LATENCY: 4 cycles
cpu12_DTLB COHERENCE INVALIDATIONS:          0
cpu12_DTLB COHERENCE WRITE-HIT OTHER-SHARER EVENTS:          0
cpu11_STLB COHERENCE INVALIDATIONS:          0
cpu11_STLB COHERENCE WRITE-HIT OTHER-SHARER EVENTS:          0
cpu11_L2C COHERENCE INVALIDATIONS:          0
cpu11_L2C COHERENCE WRITE-HIT OTHER-SHARER EVENTS:          0
cpu11->cpu11_L1I TOTAL        ACCESS:  219097233 HIT:  219097233 MISS:          0 MSHR_MERGE:          0
cpu11->cpu11_L1I LOAD         ACCESS:  219097233 HIT:  219097233 MISS:          0 MSHR_MERGE:          0
cpu11->cpu11_L1I RFO          ACCESS:          0 HIT:          0 MISS:          0 MSHR_MERGE:          0
cpu11->cpu11_L1I PREFETCH     ACCESS:          0 HIT:          0 MISS:          0 MSHR_MERGE:          0
cpu11->cpu11_L1I WRITE        ACCESS:          0 HIT:          0 MISS:          0 MSHR_MERGE:          0
cpu11->cpu11_L1I TRANSLATION  ACCESS:          0 HIT:          0 MISS:          0 MSHR_MERGE:          0
cpu11->cpu11_L1I PREFETCH REQUESTED:          0 ISSUED:          0 USEFUL:          0 USELESS:          0
cpu11->cpu11_L1I AVERAGE MISS LATENCY: - cycles
cpu11_L1I COHERENCE INVALIDATIONS:          0
cpu11_L1I COHERENCE WRITE-HIT OTHER-SHARER EVENTS:          0
cpu11_L1D COHERENCE INVALIDATIONS:          0
cpu11_L1D COHERENCE WRITE-HIT OTHER-SHARER EVENTS:          0
cpu11->cpu11_ITLB TOTAL        ACCESS:  182866466 HIT:  182866466 MISS:          0 MSHR_MERGE:          0
cpu11->cpu11_ITLB LOAD         ACCESS:  182866466 HIT:  182866466 MISS:          0 MSHR_MERGE:          0
cpu11->cpu11_ITLB RFO          ACCESS:          0 HIT:          0 MISS:          0 MSHR_MERGE:          0
cpu11->cpu11_ITLB PREFETCH     ACCESS:          0 HIT:          0 MISS:          0 MSHR_MERGE:          0
cpu11->cpu11_ITLB WRITE        ACCESS:          0 HIT:          0 MISS:          0 MSHR_MERGE:          0
cpu11->cpu11_ITLB TRANSLATION  ACCESS:          0 HIT:          0 MISS:          0 MSHR_MERGE:          0
cpu11->cpu11_ITLB PREFETCH REQUESTED:          0 ISSUED:          0 USEFUL:          0 USELESS:          0
cpu11->cpu11_ITLB AVERAGE MISS LATENCY: - cycles
cpu11_ITLB COHERENCE INVALIDATIONS:          0
cpu11_ITLB COHERENCE WRITE-HIT OTHER-SHARER EVENTS:          0
cpu11_DTLB COHERENCE INVALIDATIONS:          0
cpu11_DTLB COHERENCE WRITE-HIT OTHER-SHARER EVENTS:          0
cpu10_STLB COHERENCE INVALIDATIONS:          0
cpu10_STLB COHERENCE WRITE-HIT OTHER-SHARER EVENTS:          0
cpu10_L2C COHERENCE INVALIDATIONS:          0
cpu10_L2C COHERENCE WRITE-HIT OTHER-SHARER EVENTS:          0
cpu10->cpu10_L1I TOTAL        ACCESS:  219274485 HIT:  219274485 MISS:          0 MSHR_MERGE:          0
cpu10->cpu10_L1I LOAD         ACCESS:  219274485 HIT:  219274485 MISS:          0 MSHR_MERGE:          0
cpu10->cpu10_L1I RFO          ACCESS:          0 HIT:          0 MISS:          0 MSHR_MERGE:          0
cpu10->cpu10_L1I PREFETCH     ACCESS:          0 HIT:          0 MISS:          0 MSHR_MERGE:          0
cpu10->cpu10_L1I WRITE        ACCESS:          0 HIT:          0 MISS:          0 MSHR_MERGE:          0
cpu10->cpu10_L1I TRANSLATION  ACCESS:          0 HIT:          0 MISS:          0 MSHR_MERGE:          0
cpu10->cpu10_L1I PREFETCH REQUESTED:          0 ISSUED:          0 USEFUL:          0 USELESS:          0
cpu10->cpu10_L1I AVERAGE MISS LATENCY: - cycles
cpu10_L1I COHERENCE INVALIDATIONS:          0
cpu10_L1I COHERENCE WRITE-HIT OTHER-SHARER EVENTS:          0
cpu10_L1D COHERENCE INVALIDATIONS:          0
cpu10_L1D COHERENCE WRITE-HIT OTHER-SHARER EVENTS:          0
cpu10->cpu10_ITLB TOTAL        ACCESS:  182959986 HIT:  182959986 MISS:          0 MSHR_MERGE:          0
cpu10->cpu10_ITLB LOAD         ACCESS:  182959986 HIT:  182959986 MISS:          0 MSHR_MERGE:          0
cpu10->cpu10_ITLB RFO          ACCESS:          0 HIT:          0 MISS:          0 MSHR_MERGE:          0
cpu10->cpu10_ITLB PREFETCH     ACCESS:          0 HIT:          0 MISS:          0 MSHR_MERGE:          0
cpu10->cpu10_ITLB WRITE        ACCESS:          0 HIT:          0 MISS:          0 MSHR_MERGE:          0
cpu10->cpu10_ITLB TRANSLATION  ACCESS:          0 HIT:          0 MISS:          0 MSHR_MERGE:          0
cpu10->cpu10_ITLB PREFETCH REQUESTED:          0 ISSUED:          0 USEFUL:          0 USELESS:          0
cpu10->cpu10_ITLB AVERAGE MISS LATENCY: - cycles
cpu10_ITLB COHERENCE INVALIDATIONS:          0
cpu10_ITLB COHERENCE WRITE-HIT OTHER-SHARER EVENTS:          0
cpu10_DTLB COHERENCE INVALIDATIONS:          0
cpu10_DTLB COHERENCE WRITE-HIT OTHER-SHARER EVENTS:          0
cpu0->cpu0_STLB TOTAL        ACCESS:     329298 HIT:     329298 MISS:          0 MSHR_MERGE:          0
cpu0->cpu0_STLB LOAD         ACCESS:     329298 HIT:     329298 MISS:          0 MSHR_MERGE:          0
cpu0->cpu0_STLB RFO          ACCESS:          0 HIT:          0 MISS:          0 MSHR_MERGE:          0
cpu0->cpu0_STLB PREFETCH     ACCESS:          0 HIT:          0 MISS:          0 MSHR_MERGE:          0
cpu0->cpu0_STLB WRITE        ACCESS:          0 HIT:          0 MISS:          0 MSHR_MERGE:          0
cpu0->cpu0_STLB TRANSLATION  ACCESS:          0 HIT:          0 MISS:          0 MSHR_MERGE:          0
cpu0->cpu0_STLB PREFETCH REQUESTED:          0 ISSUED:          0 USEFUL:          0 USELESS:          0
cpu0->cpu0_STLB AVERAGE MISS LATENCY: - cycles
cpu0_STLB COHERENCE INVALIDATIONS:          0
cpu0_STLB COHERENCE WRITE-HIT OTHER-SHARER EVENTS:          0
cpu0->cpu0_L2C TOTAL        ACCESS:   10536011 HIT:    5110416 MISS:    5425595 MSHR_MERGE:          0
cpu0->cpu0_L2C LOAD         ACCESS:    1664684 HIT:     562717 MISS:    1101967 MSHR_MERGE:          0
cpu0->cpu0_L2C RFO          ACCESS:    4401700 HIT:      78072 MISS:    4323628 MSHR_MERGE:          0
cpu0->cpu0_L2C PREFETCH     ACCESS:          0 HIT:          0 MISS:          0 MSHR_MERGE:          0
cpu0->cpu0_L2C WRITE        ACCESS:    4469627 HIT:    4469627 MISS:          0 MSHR_MERGE:          0
cpu0->cpu0_L2C TRANSLATION  ACCESS:          0 HIT:          0 MISS:          0 MSHR_MERGE:          0
cpu0->cpu0_L2C PREFETCH REQUESTED:          0 ISSUED:          0 USEFUL:          0 USELESS:          0
cpu0->cpu0_L2C AVERAGE MISS LATENCY: 169.8 cycles
cpu0_L2C COHERENCE INVALIDATIONS:          0
cpu0_L2C COHERENCE WRITE-HIT OTHER-SHARER EVENTS:          0
cpu0->cpu0_L1I TOTAL        ACCESS:  147847540 HIT:  147524432 MISS:     323108 MSHR_MERGE:      84276
cpu0->cpu0_L1I LOAD         ACCESS:  147847540 HIT:  147524432 MISS:     323108 MSHR_MERGE:      84276
cpu0->cpu0_L1I RFO          ACCESS:          0 HIT:          0 MISS:          0 MSHR_MERGE:          0
cpu0->cpu0_L1I PREFETCH     ACCESS:          0 HIT:          0 MISS:          0 MSHR_MERGE:          0
cpu0->cpu0_L1I WRITE        ACCESS:          0 HIT:          0 MISS:          0 MSHR_MERGE:          0
cpu0->cpu0_L1I TRANSLATION  ACCESS:          0 HIT:          0 MISS:          0 MSHR_MERGE:          0
cpu0->cpu0_L1I PREFETCH REQUESTED:          0 ISSUED:          0 USEFUL:          0 USELESS:          0
cpu0->cpu0_L1I AVERAGE MISS LATENCY: 80.76 cycles
cpu0_L1I COHERENCE INVALIDATIONS:          0
cpu0_L1I COHERENCE WRITE-HIT OTHER-SHARER EVENTS:          0
cpu0->cpu0_L1D TOTAL        ACCESS:  176185100 HIT:  151542307 MISS:   24642793 MSHR_MERGE:   18809679
cpu0->cpu0_L1D LOAD         ACCESS:   17452330 HIT:   14861241 MISS:    2591089 MSHR_MERGE:    1165236
cpu0->cpu0_L1D RFO          ACCESS:          0 HIT:          0 MISS:          0 MSHR_MERGE:          0
cpu0->cpu0_L1D PREFETCH     ACCESS:          0 HIT:          0 MISS:          0 MSHR_MERGE:          0
cpu0->cpu0_L1D WRITE        ACCESS:  158732770 HIT:  136681066 MISS:   22051704 MSHR_MERGE:   17644443
cpu0->cpu0_L1D TRANSLATION  ACCESS:          0 HIT:          0 MISS:          0 MSHR_MERGE:          0
cpu0->cpu0_L1D PREFETCH REQUESTED:          0 ISSUED:          0 USEFUL:          0 USELESS:          0
cpu0->cpu0_L1D AVERAGE MISS LATENCY: 162.8 cycles
cpu0_L1D COHERENCE INVALIDATIONS:          0
cpu0_L1D COHERENCE WRITE-HIT OTHER-SHARER EVENTS:          0
cpu0->cpu0_ITLB TOTAL        ACCESS:  123099585 HIT:  123050374 MISS:      49211 MSHR_MERGE:      19115
cpu0->cpu0_ITLB LOAD         ACCESS:  123099585 HIT:  123050374 MISS:      49211 MSHR_MERGE:      19115
cpu0->cpu0_ITLB RFO          ACCESS:          0 HIT:          0 MISS:          0 MSHR_MERGE:          0
cpu0->cpu0_ITLB PREFETCH     ACCESS:          0 HIT:          0 MISS:          0 MSHR_MERGE:          0
cpu0->cpu0_ITLB WRITE        ACCESS:          0 HIT:          0 MISS:          0 MSHR_MERGE:          0
cpu0->cpu0_ITLB TRANSLATION  ACCESS:          0 HIT:          0 MISS:          0 MSHR_MERGE:          0
cpu0->cpu0_ITLB PREFETCH REQUESTED:          0 ISSUED:          0 USEFUL:          0 USELESS:          0
cpu0->cpu0_ITLB AVERAGE MISS LATENCY: 4.005 cycles
cpu0_ITLB COHERENCE INVALIDATIONS:          0
cpu0_ITLB COHERENCE WRITE-HIT OTHER-SHARER EVENTS:          0
cpu0->cpu0_DTLB TOTAL        ACCESS:  146682022 HIT:  146298903 MISS:     383119 MSHR_MERGE:      83917
cpu0->cpu0_DTLB LOAD         ACCESS:  146682022 HIT:  146298903 MISS:     383119 MSHR_MERGE:      83917
cpu0->cpu0_DTLB RFO          ACCESS:          0 HIT:          0 MISS:          0 MSHR_MERGE:          0
cpu0->cpu0_DTLB PREFETCH     ACCESS:          0 HIT:          0 MISS:          0 MSHR_MERGE:          0
cpu0->cpu0_DTLB WRITE        ACCESS:          0 HIT:          0 MISS:          0 MSHR_MERGE:          0
cpu0->cpu0_DTLB TRANSLATION  ACCESS:          0 HIT:          0 MISS:          0 MSHR_MERGE:          0
cpu0->cpu0_DTLB PREFETCH REQUESTED:          0 ISSUED:          0 USEFUL:          0 USELESS:          0
cpu0->cpu0_DTLB AVERAGE MISS LATENCY: 4 cycles
cpu0_DTLB COHERENCE INVALIDATIONS:          0
cpu0_DTLB COHERENCE WRITE-HIT OTHER-SHARER EVENTS:          0
cpu0->LLC TOTAL        ACCESS:    9799068 HIT:    5660955 MISS:    4138113 MSHR_MERGE:     665576
cpu0->LLC LOAD         ACCESS:    1101967 HIT:     609282 MISS:     492685 MSHR_MERGE:     193714
cpu0->LLC RFO          ACCESS:    4323627 HIT:    2308379 MISS:    2015248 MSHR_MERGE:     471862
cpu0->LLC PREFETCH     ACCESS:          0 HIT:          0 MISS:          0 MSHR_MERGE:          0
cpu0->LLC WRITE        ACCESS:    4373474 HIT:    2743294 MISS:    1630180 MSHR_MERGE:          0
cpu0->LLC TRANSLATION  ACCESS:          0 HIT:          0 MISS:          0 MSHR_MERGE:          0
cpu0->LLC PREFETCH REQUESTED:          0 ISSUED:          0 USEFUL:          0 USELESS:          0
cpu0->LLC AVERAGE MISS LATENCY: 1180 cycles
cpu1->LLC TOTAL        ACCESS:    2034981 HIT:     598631 MISS:    1436350 MSHR_MERGE:     797200
cpu1->LLC LOAD         ACCESS:    1628705 HIT:     589873 MISS:    1038832 MSHR_MERGE:     797200
cpu1->LLC RFO          ACCESS:          0 HIT:          0 MISS:          0 MSHR_MERGE:          0
cpu1->LLC PREFETCH     ACCESS:          0 HIT:          0 MISS:          0 MSHR_MERGE:          0
cpu1->LLC WRITE        ACCESS:          0 HIT:          0 MISS:          0 MSHR_MERGE:          0
cpu1->LLC TRANSLATION  ACCESS:     406276 HIT:       8758 MISS:     397518 MSHR_MERGE:          0
cpu1->LLC PREFETCH REQUESTED:          0 ISSUED:          0 USEFUL:          0 USELESS:          0
cpu1->LLC AVERAGE MISS LATENCY: 3111 cycles
cpu4->LLC TOTAL        ACCESS:    9800834 HIT:    7920411 MISS:    1880423 MSHR_MERGE:     472978
cpu4->LLC LOAD         ACCESS:    1101939 HIT:     618331 MISS:     483608 MSHR_MERGE:     416688
cpu4->LLC RFO          ACCESS:    4324682 HIT:    3820373 MISS:     504309 MSHR_MERGE:      56290
cpu4->LLC PREFETCH     ACCESS:          0 HIT:          0 MISS:          0 MSHR_MERGE:          0
cpu4->LLC WRITE        ACCESS:    4374213 HIT:    3481707 MISS:     892506 MSHR_MERGE:          0
cpu4->LLC TRANSLATION  ACCESS:          0 HIT:          0 MISS:          0 MSHR_MERGE:          0
cpu4->LLC PREFETCH REQUESTED:          0 ISSUED:          0 USEFUL:          0 USELESS:          0
cpu4->LLC AVERAGE MISS LATENCY: 1479 cycles
cpu5->LLC TOTAL        ACCESS:    1940367 HIT:     524839 MISS:    1415528 MSHR_MERGE:     183302
cpu5->LLC LOAD         ACCESS:    1552661 HIT:     516959 MISS:    1035702 MSHR_MERGE:     183302
cpu5->LLC RFO          ACCESS:          0 HIT:          0 MISS:          0 MSHR_MERGE:          0
cpu5->LLC PREFETCH     ACCESS:          0 HIT:          0 MISS:          0 MSHR_MERGE:          0
cpu5->LLC WRITE        ACCESS:          0 HIT:          0 MISS:          0 MSHR_MERGE:          0
cpu5->LLC TRANSLATION  ACCESS:     387706 HIT:       7880 MISS:     379826 MSHR_MERGE:          0
cpu5->LLC PREFETCH REQUESTED:          0 ISSUED:          0 USEFUL:          0 USELESS:          0
cpu5->LLC AVERAGE MISS LATENCY: 1723 cycles
cpu8->LLC TOTAL        ACCESS:    9798161 HIT:    7308626 MISS:    2489535 MSHR_MERGE:    1147169
cpu8->LLC LOAD         ACCESS:    1101974 HIT:     609360 MISS:     492614 MSHR_MERGE:     442466
cpu8->LLC RFO          ACCESS:    4323148 HIT:    3334262 MISS:     988886 MSHR_MERGE:     704703
cpu8->LLC PREFETCH     ACCESS:          0 HIT:          0 MISS:          0 MSHR_MERGE:          0
cpu8->LLC WRITE        ACCESS:    4373039 HIT:    3365004 MISS:    1008035 MSHR_MERGE:          0
cpu8->LLC TRANSLATION  ACCESS:          0 HIT:          0 MISS:          0 MSHR_MERGE:          0
cpu8->LLC PREFETCH REQUESTED:          0 ISSUED:          0 USEFUL:          0 USELESS:          0
cpu8->LLC AVERAGE MISS LATENCY: 1040 cycles
cpu9->LLC TOTAL        ACCESS:    2035106 HIT:     602479 MISS:    1432627 MSHR_MERGE:     652442
cpu9->LLC LOAD         ACCESS:    1628538 HIT:     593950 MISS:    1034588 MSHR_MERGE:     652442
cpu9->LLC RFO          ACCESS:          0 HIT:          0 MISS:          0 MSHR_MERGE:          0
cpu9->LLC PREFETCH     ACCESS:          0 HIT:          0 MISS:          0 MSHR_MERGE:          0
cpu9->LLC WRITE        ACCESS:          0 HIT:          0 MISS:          0 MSHR_MERGE:          0
cpu9->LLC TRANSLATION  ACCESS:     406568 HIT:       8529 MISS:     398039 MSHR_MERGE:          0
cpu9->LLC PREFETCH REQUESTED:          0 ISSUED:          0 USEFUL:          0 USELESS:          0
cpu9->LLC AVERAGE MISS LATENCY: 2515 cycles
cpu12->LLC TOTAL        ACCESS:    9799068 HIT:    5660305 MISS:    4138763 MSHR_MERGE:    2032911
cpu12->LLC LOAD         ACCESS:    1101967 HIT:     609282 MISS:     492685 MSHR_MERGE:     409274
cpu12->LLC RFO          ACCESS:    4323627 HIT:    2308379 MISS:    2015248 MSHR_MERGE:    1623637
cpu12->LLC PREFETCH     ACCESS:          0 HIT:          0 MISS:          0 MSHR_MERGE:          0
cpu12->LLC WRITE        ACCESS:    4373474 HIT:    2742644 MISS:    1630830 MSHR_MERGE:          0
cpu12->LLC TRANSLATION  ACCESS:          0 HIT:          0 MISS:          0 MSHR_MERGE:          0
cpu12->LLC PREFETCH REQUESTED:          0 ISSUED:          0 USEFUL:          0 USELESS:          0
cpu12->LLC AVERAGE MISS LATENCY: 828.4 cycles
cpu13->LLC TOTAL        ACCESS:    2034204 HIT:     599913 MISS:    1434291 MSHR_MERGE:     557917
cpu13->LLC LOAD         ACCESS:    1627888 HIT:     591683 MISS:    1036205 MSHR_MERGE:     557917
cpu13->LLC RFO          ACCESS:          0 HIT:          0 MISS:          0 MSHR_MERGE:          0
cpu13->LLC PREFETCH     ACCESS:          0 HIT:          0 MISS:          0 MSHR_MERGE:          0
cpu13->LLC WRITE        ACCESS:          0 HIT:          0 MISS:          0 MSHR_MERGE:          0
cpu13->LLC TRANSLATION  ACCESS:     406316 HIT:       8230 MISS:     398086 MSHR_MERGE:          0
cpu13->LLC PREFETCH REQUESTED:          0 ISSUED:          0 USEFUL:          0 USELESS:          0
cpu13->LLC AVERAGE MISS LATENCY: 3776 cycles
LLC COHERENCE INVALIDATIONS:   17723907
LLC COHERENCE WRITE-HIT OTHER-SHARER EVENTS:   12331607

DRAM Statistics

Channel 0 RQ ROW_BUFFER_HIT:     211592
  ROW_BUFFER_MISS:    6481369
  AVG DBUS CONGESTED CYCLE: 7.378
Channel 0 WQ ROW_BUFFER_HIT:     669363
  ROW_BUFFER_MISS:    3477259
  FULL:     139863
Channel 0 REFRESHES ISSUED:      31794

VMEM ALIASED FILLS (cross-CPU shared-page hits): 918493
