[VMEM] WARNING: physical memory size is smaller than virtual memory size.

*** ChampSim Multicore Out-of-Order Simulator ***
Warmup Instructions: 50000000
Simulation Instructions: 100000000
Number of CPUs: 16
Page size: 4096

Off-chip DRAM Size: 16 GiB Channels: 1 Width: 64-bit Data Rate: 3205 MT/s
*** Reached end of trace: (11, "/home/harshraj/COALESCE-Hashed-Perceptron-Cache-Replacement-Policy/simulator/traces/canneal_big3.champsimtrace")
*** Reached end of trace: (2, "/home/harshraj/COALESCE-Hashed-Perceptron-Cache-Replacement-Policy/simulator/traces/canneal_big2.champsimtrace")
*** Reached end of trace: (7, "/home/harshraj/COALESCE-Hashed-Perceptron-Cache-Replacement-Policy/simulator/traces/canneal_big3.champsimtrace")
*** Reached end of trace: (3, "/home/harshraj/COALESCE-Hashed-Perceptron-Cache-Replacement-Policy/simulator/traces/canneal_big3.champsimtrace")
*** Reached end of trace: (15, "/home/harshraj/COALESCE-Hashed-Perceptron-Cache-Replacement-Policy/simulator/traces/canneal_big3.champsimtrace")
*** Reached end of trace: (10, "/home/harshraj/COALESCE-Hashed-Perceptron-Cache-Replacement-Policy/simulator/traces/canneal_big2.champsimtrace")
*** Reached end of trace: (6, "/home/harshraj/COALESCE-Hashed-Perceptron-Cache-Replacement-Policy/simulator/traces/canneal_big2.champsimtrace")
*** Reached end of trace: (14, "/home/harshraj/COALESCE-Hashed-Perceptron-Cache-Replacement-Policy/simulator/traces/canneal_big2.champsimtrace")
*** Reached end of trace: (0, "/home/harshraj/COALESCE-Hashed-Perceptron-Cache-Replacement-Policy/simulator/traces/canneal_big0.champsimtrace")
*** Reached end of trace: (8, "/home/harshraj/COALESCE-Hashed-Perceptron-Cache-Replacement-Policy/simulator/traces/canneal_big0.champsimtrace")
*** Reached end of trace: (12, "/home/harshraj/COALESCE-Hashed-Perceptron-Cache-Replacement-Policy/simulator/traces/canneal_big0.champsimtrace")
*** Reached end of trace: (4, "/home/harshraj/COALESCE-Hashed-Perceptron-Cache-Replacement-Policy/simulator/traces/canneal_big0.champsimtrace")
*** Reached end of trace: (11, "/home/harshraj/COALESCE-Hashed-Perceptron-Cache-Replacement-Policy/simulator/traces/canneal_big3.champsimtrace")
Heartbeat CPU 11 instructions: 10000001 cycles: 2503263 heartbeat IPC: 3.995 cumulative IPC: 3.995 (Simulation time: 00 hr 16 min 32 sec)
*** Reached end of trace: (2, "/home/harshraj/COALESCE-Hashed-Perceptron-Cache-Replacement-Policy/simulator/traces/canneal_big2.champsimtrace")
*** Reached end of trace: (7, "/home/harshraj/COALESCE-Hashed-Perceptron-Cache-Replacement-Policy/simulator/traces/canneal_big3.champsimtrace")
*** Reached end of trace: (3, "/home/harshraj/COALESCE-Hashed-Perceptron-Cache-Replacement-Policy/simulator/traces/canneal_big3.champsimtrace")
*** Reached end of trace: (15, "/home/harshraj/COALESCE-Hashed-Perceptron-Cache-Replacement-Policy/simulator/traces/canneal_big3.champsimtrace")
Heartbeat CPU 2 instructions: 10000001 cycles: 2503412 heartbeat IPC: 3.995 cumulative IPC: 3.995 (Simulation time: 00 hr 16 min 32 sec)
Heartbeat CPU 7 instructions: 10000001 cycles: 2503441 heartbeat IPC: 3.995 cumulative IPC: 3.995 (Simulation time: 00 hr 16 min 32 sec)
Heartbeat CPU 3 instructions: 10000001 cycles: 2503453 heartbeat IPC: 3.994 cumulative IPC: 3.994 (Simulation time: 00 hr 16 min 32 sec)
Heartbeat CPU 15 instructions: 10000001 cycles: 2503461 heartbeat IPC: 3.994 cumulative IPC: 3.994 (Simulation time: 00 hr 16 min 32 sec)
*** Reached end of trace: (10, "/home/harshraj/COALESCE-Hashed-Perceptron-Cache-Replacement-Policy/simulator/traces/canneal_big2.champsimtrace")
*** Reached end of trace: (6, "/home/harshraj/COALESCE-Hashed-Perceptron-Cache-Replacement-Policy/simulator/traces/canneal_big2.champsimtrace")
*** Reached end of trace: (14, "/home/harshraj/COALESCE-Hashed-Perceptron-Cache-Replacement-Policy/simulator/traces/canneal_big2.champsimtrace")
Heartbeat CPU 10 instructions: 10000001 cycles: 2503606 heartbeat IPC: 3.994 cumulative IPC: 3.994 (Simulation time: 00 hr 16 min 32 sec)
Heartbeat CPU 6 instructions: 10000001 cycles: 2503608 heartbeat IPC: 3.994 cumulative IPC: 3.994 (Simulation time: 00 hr 16 min 32 sec)
Heartbeat CPU 14 instructions: 10000001 cycles: 2503612 heartbeat IPC: 3.994 cumulative IPC: 3.994 (Simulation time: 00 hr 16 min 32 sec)
*** Reached end of trace: (11, "/home/harshraj/COALESCE-Hashed-Perceptron-Cache-Replacement-Policy/simulator/traces/canneal_big3.champsimtrace")
*** Reached end of trace: (2, "/home/harshraj/COALESCE-Hashed-Perceptron-Cache-Replacement-Policy/simulator/traces/canneal_big2.champsimtrace")
*** Reached end of trace: (7, "/home/harshraj/COALESCE-Hashed-Perceptron-Cache-Replacement-Policy/simulator/traces/canneal_big3.champsimtrace")
*** Reached end of trace: (3, "/home/harshraj/COALESCE-Hashed-Perceptron-Cache-Replacement-Policy/simulator/traces/canneal_big3.champsimtrace")
*** Reached end of trace: (15, "/home/harshraj/COALESCE-Hashed-Perceptron-Cache-Replacement-Policy/simulator/traces/canneal_big3.champsimtrace")
*** Reached end of trace: (10, "/home/harshraj/COALESCE-Hashed-Perceptron-Cache-Replacement-Policy/simulator/traces/canneal_big2.champsimtrace")
*** Reached end of trace: (6, "/home/harshraj/COALESCE-Hashed-Perceptron-Cache-Replacement-Policy/simulator/traces/canneal_big2.champsimtrace")
*** Reached end of trace: (14, "/home/harshraj/COALESCE-Hashed-Perceptron-Cache-Replacement-Policy/simulator/traces/canneal_big2.champsimtrace")
*** Reached end of trace: (8, "/home/harshraj/COALESCE-Hashed-Perceptron-Cache-Replacement-Policy/simulator/traces/canneal_big0.champsimtrace")
Heartbeat CPU 8 instructions: 10000003 cycles: 3966785 heartbeat IPC: 2.521 cumulative IPC: 2.521 (Simulation time: 00 hr 26 min 18 sec)
*** Reached end of trace: (12, "/home/harshraj/COALESCE-Hashed-Perceptron-Cache-Replacement-Policy/simulator/traces/canneal_big0.champsimtrace")
*** Reached end of trace: (0, "/home/harshraj/COALESCE-Hashed-Perceptron-Cache-Replacement-Policy/simulator/traces/canneal_big0.champsimtrace")
Heartbeat CPU 0 instructions: 10000003 cycles: 3969138 heartbeat IPC: 2.519 cumulative IPC: 2.519 (Simulation time: 00 hr 26 min 19 sec)
Heartbeat CPU 12 instructions: 10000003 cycles: 3969138 heartbeat IPC: 2.519 cumulative IPC: 2.519 (Simulation time: 00 hr 26 min 19 sec)
*** Reached end of trace: (4, "/home/harshraj/COALESCE-Hashed-Perceptron-Cache-Replacement-Policy/simulator/traces/canneal_big0.champsimtrace")
Heartbeat CPU 4 instructions: 10000003 cycles: 3973522 heartbeat IPC: 2.517 cumulative IPC: 2.517 (Simulation time: 00 hr 26 min 21 sec)
*** Reached end of trace: (13, "/home/harshraj/COALESCE-Hashed-Perceptron-Cache-Replacement-Policy/simulator/traces/canneal_big1.champsimtrace")
*** Reached end of trace: (5, "/home/harshraj/COALESCE-Hashed-Perceptron-Cache-Replacement-Policy/simulator/traces/canneal_big1.champsimtrace")
*** Reached end of trace: (1, "/home/harshraj/COALESCE-Hashed-Perceptron-Cache-Replacement-Policy/simulator/traces/canneal_big1.champsimtrace")
*** Reached end of trace: (9, "/home/harshraj/COALESCE-Hashed-Perceptron-Cache-Replacement-Policy/simulator/traces/canneal_big1.champsimtrace")
*** Reached end of trace: (11, "/home/harshraj/COALESCE-Hashed-Perceptron-Cache-Replacement-Policy/simulator/traces/canneal_big3.champsimtrace")
Heartbeat CPU 11 instructions: 20000001 cycles: 5003263 heartbeat IPC: 4 cumulative IPC: 3.997 (Simulation time: 00 hr 34 min 01 sec)
*** Reached end of trace: (2, "/home/harshraj/COALESCE-Hashed-Perceptron-Cache-Replacement-Policy/simulator/traces/canneal_big2.champsimtrace")
*** Reached end of trace: (7, "/home/harshraj/COALESCE-Hashed-Perceptron-Cache-Replacement-Policy/simulator/traces/canneal_big3.champsimtrace")
*** Reached end of trace: (3, "/home/harshraj/COALESCE-Hashed-Perceptron-Cache-Replacement-Policy/simulator/traces/canneal_big3.champsimtrace")
*** Reached end of trace: (15, "/home/harshraj/COALESCE-Hashed-Perceptron-Cache-Replacement-Policy/simulator/traces/canneal_big3.champsimtrace")
Heartbeat CPU 2 instructions: 20000001 cycles: 5003412 heartbeat IPC: 4 cumulative IPC: 3.997 (Simulation time: 00 hr 34 min 01 sec)
Heartbeat CPU 7 instructions: 20000001 cycles: 5003441 heartbeat IPC: 4 cumulative IPC: 3.997 (Simulation time: 00 hr 34 min 01 sec)
Heartbeat CPU 3 instructions: 20000001 cycles: 5003453 heartbeat IPC: 4 cumulative IPC: 3.997 (Simulation time: 00 hr 34 min 01 sec)
Heartbeat CPU 15 instructions: 20000001 cycles: 5003461 heartbeat IPC: 4 cumulative IPC: 3.997 (Simulation time: 00 hr 34 min 01 sec)
*** Reached end of trace: (10, "/home/harshraj/COALESCE-Hashed-Perceptron-Cache-Replacement-Policy/simulator/traces/canneal_big2.champsimtrace")
*** Reached end of trace: (6, "/home/harshraj/COALESCE-Hashed-Perceptron-Cache-Replacement-Policy/simulator/traces/canneal_big2.champsimtrace")
*** Reached end of trace: (14, "/home/harshraj/COALESCE-Hashed-Perceptron-Cache-Replacement-Policy/simulator/traces/canneal_big2.champsimtrace")
Heartbeat CPU 10 instructions: 20000001 cycles: 5003606 heartbeat IPC: 4 cumulative IPC: 3.997 (Simulation time: 00 hr 34 min 01 sec)
Heartbeat CPU 6 instructions: 20000001 cycles: 5003608 heartbeat IPC: 4 cumulative IPC: 3.997 (Simulation time: 00 hr 34 min 01 sec)
Heartbeat CPU 14 instructions: 20000001 cycles: 5003612 heartbeat IPC: 4 cumulative IPC: 3.997 (Simulation time: 00 hr 34 min 01 sec)
*** Reached end of trace: (8, "/home/harshraj/COALESCE-Hashed-Perceptron-Cache-Replacement-Policy/simulator/traces/canneal_big0.champsimtrace")
*** Reached end of trace: (12, "/home/harshraj/COALESCE-Hashed-Perceptron-Cache-Replacement-Policy/simulator/traces/canneal_big0.champsimtrace")
*** Reached end of trace: (0, "/home/harshraj/COALESCE-Hashed-Perceptron-Cache-Replacement-Policy/simulator/traces/canneal_big0.champsimtrace")
*** Reached end of trace: (4, "/home/harshraj/COALESCE-Hashed-Perceptron-Cache-Replacement-Policy/simulator/traces/canneal_big0.champsimtrace")
*** Reached end of trace: (11, "/home/harshraj/COALESCE-Hashed-Perceptron-Cache-Replacement-Policy/simulator/traces/canneal_big3.champsimtrace")
*** Reached end of trace: (2, "/home/harshraj/COALESCE-Hashed-Perceptron-Cache-Replacement-Policy/simulator/traces/canneal_big2.champsimtrace")
*** Reached end of trace: (7, "/home/harshraj/COALESCE-Hashed-Perceptron-Cache-Replacement-Policy/simulator/traces/canneal_big3.champsimtrace")
*** Reached end of trace: (3, "/home/harshraj/COALESCE-Hashed-Perceptron-Cache-Replacement-Policy/simulator/traces/canneal_big3.champsimtrace")
*** Reached end of trace: (15, "/home/harshraj/COALESCE-Hashed-Perceptron-Cache-Replacement-Policy/simulator/traces/canneal_big3.champsimtrace")
*** Reached end of trace: (10, "/home/harshraj/COALESCE-Hashed-Perceptron-Cache-Replacement-Policy/simulator/traces/canneal_big2.champsimtrace")
*** Reached end of trace: (6, "/home/harshraj/COALESCE-Hashed-Perceptron-Cache-Replacement-Policy/simulator/traces/canneal_big2.champsimtrace")
*** Reached end of trace: (14, "/home/harshraj/COALESCE-Hashed-Perceptron-Cache-Replacement-Policy/simulator/traces/canneal_big2.champsimtrace")
*** Reached end of trace: (13, "/home/harshraj/COALESCE-Hashed-Perceptron-Cache-Replacement-Policy/simulator/traces/canneal_big1.champsimtrace")
*** Reached end of trace: (1, "/home/harshraj/COALESCE-Hashed-Perceptron-Cache-Replacement-Policy/simulator/traces/canneal_big1.champsimtrace")
*** Reached end of trace: (9, "/home/harshraj/COALESCE-Hashed-Perceptron-Cache-Replacement-Policy/simulator/traces/canneal_big1.champsimtrace")
Heartbeat CPU 13 instructions: 10000002 cycles: 7023308 heartbeat IPC: 1.424 cumulative IPC: 1.424 (Simulation time: 00 hr 47 min 30 sec)
Heartbeat CPU 1 instructions: 10000002 cycles: 7023316 heartbeat IPC: 1.424 cumulative IPC: 1.424 (Simulation time: 00 hr 47 min 30 sec)
Heartbeat CPU 9 instructions: 10000002 cycles: 7023326 heartbeat IPC: 1.424 cumulative IPC: 1.424 (Simulation time: 00 hr 47 min 30 sec)
*** Reached end of trace: (5, "/home/harshraj/COALESCE-Hashed-Perceptron-Cache-Replacement-Policy/simulator/traces/canneal_big1.champsimtrace")
Heartbeat CPU 5 instructions: 10000002 cycles: 7029780 heartbeat IPC: 1.423 cumulative IPC: 1.423 (Simulation time: 00 hr 47 min 32 sec)
*** Reached end of trace: (11, "/home/harshraj/COALESCE-Hashed-Perceptron-Cache-Replacement-Policy/simulator/traces/canneal_big3.champsimtrace")
Heartbeat CPU 11 instructions: 30000001 cycles: 7503263 heartbeat IPC: 4 cumulative IPC: 3.998 (Simulation time: 00 hr 50 min 42 sec)
*** Reached end of trace: (2, "/home/harshraj/COALESCE-Hashed-Perceptron-Cache-Replacement-Policy/simulator/traces/canneal_big2.champsimtrace")
*** Reached end of trace: (7, "/home/harshraj/COALESCE-Hashed-Perceptron-Cache-Replacement-Policy/simulator/traces/canneal_big3.champsimtrace")
*** Reached end of trace: (3, "/home/harshraj/COALESCE-Hashed-Perceptron-Cache-Replacement-Policy/simulator/traces/canneal_big3.champsimtrace")
*** Reached end of trace: (15, "/home/harshraj/COALESCE-Hashed-Perceptron-Cache-Replacement-Policy/simulator/traces/canneal_big3.champsimtrace")
Heartbeat CPU 2 instructions: 30000001 cycles: 7503412 heartbeat IPC: 4 cumulative IPC: 3.998 (Simulation time: 00 hr 50 min 42 sec)
Heartbeat CPU 7 instructions: 30000001 cycles: 7503441 heartbeat IPC: 4 cumulative IPC: 3.998 (Simulation time: 00 hr 50 min 42 sec)
Heartbeat CPU 3 instructions: 30000001 cycles: 7503453 heartbeat IPC: 4 cumulative IPC: 3.998 (Simulation time: 00 hr 50 min 42 sec)
Heartbeat CPU 15 instructions: 30000001 cycles: 7503461 heartbeat IPC: 4 cumulative IPC: 3.998 (Simulation time: 00 hr 50 min 42 sec)
*** Reached end of trace: (10, "/home/harshraj/COALESCE-Hashed-Perceptron-Cache-Replacement-Policy/simulator/traces/canneal_big2.champsimtrace")
*** Reached end of trace: (6, "/home/harshraj/COALESCE-Hashed-Perceptron-Cache-Replacement-Policy/simulator/traces/canneal_big2.champsimtrace")
*** Reached end of trace: (14, "/home/harshraj/COALESCE-Hashed-Perceptron-Cache-Replacement-Policy/simulator/traces/canneal_big2.champsimtrace")
Heartbeat CPU 10 instructions: 30000001 cycles: 7503606 heartbeat IPC: 4 cumulative IPC: 3.998 (Simulation time: 00 hr 50 min 42 sec)
Heartbeat CPU 6 instructions: 30000001 cycles: 7503608 heartbeat IPC: 4 cumulative IPC: 3.998 (Simulation time: 00 hr 50 min 42 sec)
Heartbeat CPU 14 instructions: 30000001 cycles: 7503612 heartbeat IPC: 4 cumulative IPC: 3.998 (Simulation time: 00 hr 50 min 42 sec)
*** Reached end of trace: (8, "/home/harshraj/COALESCE-Hashed-Perceptron-Cache-Replacement-Policy/simulator/traces/canneal_big0.champsimtrace")
Heartbeat CPU 8 instructions: 20000006 cycles: 7808555 heartbeat IPC: 2.603 cumulative IPC: 2.561 (Simulation time: 00 hr 52 min 29 sec)
*** Reached end of trace: (12, "/home/harshraj/COALESCE-Hashed-Perceptron-Cache-Replacement-Policy/simulator/traces/canneal_big0.champsimtrace")
*** Reached end of trace: (0, "/home/harshraj/COALESCE-Hashed-Perceptron-Cache-Replacement-Policy/simulator/traces/canneal_big0.champsimtrace")
Heartbeat CPU 0 instructions: 20000006 cycles: 7812066 heartbeat IPC: 2.602 cumulative IPC: 2.56 (Simulation time: 00 hr 52 min 30 sec)
Heartbeat CPU 12 instructions: 20000006 cycles: 7812066 heartbeat IPC: 2.602 cumulative IPC: 2.56 (Simulation time: 00 hr 52 min 30 sec)
*** Reached end of trace: (4, "/home/harshraj/COALESCE-Hashed-Perceptron-Cache-Replacement-Policy/simulator/traces/canneal_big0.champsimtrace")
Heartbeat CPU 4 instructions: 20000006 cycles: 7827530 heartbeat IPC: 2.595 cumulative IPC: 2.555 (Simulation time: 00 hr 52 min 37 sec)
*** Reached end of trace: (11, "/home/harshraj/COALESCE-Hashed-Perceptron-Cache-Replacement-Policy/simulator/traces/canneal_big3.champsimtrace")
*** Reached end of trace: (2, "/home/harshraj/COALESCE-Hashed-Perceptron-Cache-Replacement-Policy/simulator/traces/canneal_big2.champsimtrace")
*** Reached end of trace: (7, "/home/harshraj/COALESCE-Hashed-Perceptron-Cache-Replacement-Policy/simulator/traces/canneal_big3.champsimtrace")
*** Reached end of trace: (3, "/home/harshraj/COALESCE-Hashed-Perceptron-Cache-Replacement-Policy/simulator/traces/canneal_big3.champsimtrace")
*** Reached end of trace: (15, "/home/harshraj/COALESCE-Hashed-Perceptron-Cache-Replacement-Policy/simulator/traces/canneal_big3.champsimtrace")
*** Reached end of trace: (10, "/home/harshraj/COALESCE-Hashed-Perceptron-Cache-Replacement-Policy/simulator/traces/canneal_big2.champsimtrace")
*** Reached end of trace: (6, "/home/harshraj/COALESCE-Hashed-Perceptron-Cache-Replacement-Policy/simulator/traces/canneal_big2.champsimtrace")
*** Reached end of trace: (14, "/home/harshraj/COALESCE-Hashed-Perceptron-Cache-Replacement-Policy/simulator/traces/canneal_big2.champsimtrace")
*** Reached end of trace: (8, "/home/harshraj/COALESCE-Hashed-Perceptron-Cache-Replacement-Policy/simulator/traces/canneal_big0.champsimtrace")
*** Reached end of trace: (12, "/home/harshraj/COALESCE-Hashed-Perceptron-Cache-Replacement-Policy/simulator/traces/canneal_big0.champsimtrace")
*** Reached end of trace: (0, "/home/harshraj/COALESCE-Hashed-Perceptron-Cache-Replacement-Policy/simulator/traces/canneal_big0.champsimtrace")
*** Reached end of trace: (4, "/home/harshraj/COALESCE-Hashed-Perceptron-Cache-Replacement-Policy/simulator/traces/canneal_big0.champsimtrace")
*** Reached end of trace: (13, "/home/harshraj/COALESCE-Hashed-Perceptron-Cache-Replacement-Policy/simulator/traces/canneal_big1.champsimtrace")
*** Reached end of trace: (1, "/home/harshraj/COALESCE-Hashed-Perceptron-Cache-Replacement-Policy/simulator/traces/canneal_big1.champsimtrace")
*** Reached end of trace: (9, "/home/harshraj/COALESCE-Hashed-Perceptron-Cache-Replacement-Policy/simulator/traces/canneal_big1.champsimtrace")
*** Reached end of trace: (5, "/home/harshraj/COALESCE-Hashed-Perceptron-Cache-Replacement-Policy/simulator/traces/canneal_big1.champsimtrace")
*** Reached end of trace: (11, "/home/harshraj/COALESCE-Hashed-Perceptron-Cache-Replacement-Policy/simulator/traces/canneal_big3.champsimtrace")
Heartbeat CPU 11 instructions: 40000001 cycles: 10003263 heartbeat IPC: 4 cumulative IPC: 3.999 (Simulation time: 01 hr 04 min 32 sec)
*** Reached end of trace: (2, "/home/harshraj/COALESCE-Hashed-Perceptron-Cache-Replacement-Policy/simulator/traces/canneal_big2.champsimtrace")
*** Reached end of trace: (7, "/home/harshraj/COALESCE-Hashed-Perceptron-Cache-Replacement-Policy/simulator/traces/canneal_big3.champsimtrace")
*** Reached end of trace: (3, "/home/harshraj/COALESCE-Hashed-Perceptron-Cache-Replacement-Policy/simulator/traces/canneal_big3.champsimtrace")
*** Reached end of trace: (15, "/home/harshraj/COALESCE-Hashed-Perceptron-Cache-Replacement-Policy/simulator/traces/canneal_big3.champsimtrace")
Heartbeat CPU 2 instructions: 40000001 cycles: 10003412 heartbeat IPC: 4 cumulative IPC: 3.999 (Simulation time: 01 hr 04 min 32 sec)
Heartbeat CPU 7 instructions: 40000001 cycles: 10003441 heartbeat IPC: 4 cumulative IPC: 3.999 (Simulation time: 01 hr 04 min 32 sec)
Heartbeat CPU 3 instructions: 40000001 cycles: 10003453 heartbeat IPC: 4 cumulative IPC: 3.999 (Simulation time: 01 hr 04 min 32 sec)
Heartbeat CPU 15 instructions: 40000001 cycles: 10003461 heartbeat IPC: 4 cumulative IPC: 3.999 (Simulation time: 01 hr 04 min 32 sec)
*** Reached end of trace: (10, "/home/harshraj/COALESCE-Hashed-Perceptron-Cache-Replacement-Policy/simulator/traces/canneal_big2.champsimtrace")
*** Reached end of trace: (6, "/home/harshraj/COALESCE-Hashed-Perceptron-Cache-Replacement-Policy/simulator/traces/canneal_big2.champsimtrace")
*** Reached end of trace: (14, "/home/harshraj/COALESCE-Hashed-Perceptron-Cache-Replacement-Policy/simulator/traces/canneal_big2.champsimtrace")
Heartbeat CPU 10 instructions: 40000001 cycles: 10003606 heartbeat IPC: 4 cumulative IPC: 3.999 (Simulation time: 01 hr 04 min 32 sec)
Heartbeat CPU 6 instructions: 40000001 cycles: 10003608 heartbeat IPC: 4 cumulative IPC: 3.999 (Simulation time: 01 hr 04 min 32 sec)
Heartbeat CPU 14 instructions: 40000001 cycles: 10003612 heartbeat IPC: 4 cumulative IPC: 3.999 (Simulation time: 01 hr 04 min 32 sec)
*** Reached end of trace: (11, "/home/harshraj/COALESCE-Hashed-Perceptron-Cache-Replacement-Policy/simulator/traces/canneal_big3.champsimtrace")
*** Reached end of trace: (2, "/home/harshraj/COALESCE-Hashed-Perceptron-Cache-Replacement-Policy/simulator/traces/canneal_big2.champsimtrace")
*** Reached end of trace: (7, "/home/harshraj/COALESCE-Hashed-Perceptron-Cache-Replacement-Policy/simulator/traces/canneal_big3.champsimtrace")
*** Reached end of trace: (3, "/home/harshraj/COALESCE-Hashed-Perceptron-Cache-Replacement-Policy/simulator/traces/canneal_big3.champsimtrace")
*** Reached end of trace: (15, "/home/harshraj/COALESCE-Hashed-Perceptron-Cache-Replacement-Policy/simulator/traces/canneal_big3.champsimtrace")
*** Reached end of trace: (10, "/home/harshraj/COALESCE-Hashed-Perceptron-Cache-Replacement-Policy/simulator/traces/canneal_big2.champsimtrace")
*** Reached end of trace: (6, "/home/harshraj/COALESCE-Hashed-Perceptron-Cache-Replacement-Policy/simulator/traces/canneal_big2.champsimtrace")
*** Reached end of trace: (14, "/home/harshraj/COALESCE-Hashed-Perceptron-Cache-Replacement-Policy/simulator/traces/canneal_big2.champsimtrace")
*** Reached end of trace: (8, "/home/harshraj/COALESCE-Hashed-Perceptron-Cache-Replacement-Policy/simulator/traces/canneal_big0.champsimtrace")
Heartbeat CPU 8 instructions: 30000009 cycles: 11650596 heartbeat IPC: 2.603 cumulative IPC: 2.575 (Simulation time: 01 hr 16 min 50 sec)
*** Reached end of trace: (12, "/home/harshraj/COALESCE-Hashed-Perceptron-Cache-Replacement-Policy/simulator/traces/canneal_big0.champsimtrace")
*** Reached end of trace: (0, "/home/harshraj/COALESCE-Hashed-Perceptron-Cache-Replacement-Policy/simulator/traces/canneal_big0.champsimtrace")
Heartbeat CPU 0 instructions: 30000009 cycles: 11654412 heartbeat IPC: 2.603 cumulative IPC: 2.574 (Simulation time: 01 hr 16 min 52 sec)
Heartbeat CPU 12 instructions: 30000009 cycles: 11654412 heartbeat IPC: 2.603 cumulative IPC: 2.574 (Simulation time: 01 hr 16 min 52 sec)
*** Reached end of trace: (4, "/home/harshraj/COALESCE-Hashed-Perceptron-Cache-Replacement-Policy/simulator/traces/canneal_big0.champsimtrace")
Heartbeat CPU 4 instructions: 30000009 cycles: 11681461 heartbeat IPC: 2.595 cumulative IPC: 2.568 (Simulation time: 01 hr 17 min 04 sec)
*** Reached end of trace: (11, "/home/harshraj/COALESCE-Hashed-Perceptron-Cache-Replacement-Policy/simulator/traces/canneal_big3.champsimtrace")
Heartbeat CPU 11 instructions: 50000001 cycles: 12503263 heartbeat IPC: 4 cumulative IPC: 3.999 (Simulation time: 01 hr 23 min 11 sec)
Warmup finished CPU 11 instructions: 50000001 cycles: 12503263 cumulative IPC: 3.999 (Simulation time: 01 hr 23 min 11 sec)
*** Reached end of trace: (2, "/home/harshraj/COALESCE-Hashed-Perceptron-Cache-Replacement-Policy/simulator/traces/canneal_big2.champsimtrace")
*** Reached end of trace: (7, "/home/harshraj/COALESCE-Hashed-Perceptron-Cache-Replacement-Policy/simulator/traces/canneal_big3.champsimtrace")
*** Reached end of trace: (3, "/home/harshraj/COALESCE-Hashed-Perceptron-Cache-Replacement-Policy/simulator/traces/canneal_big3.champsimtrace")
*** Reached end of trace: (15, "/home/harshraj/COALESCE-Hashed-Perceptron-Cache-Replacement-Policy/simulator/traces/canneal_big3.champsimtrace")
Heartbeat CPU 2 instructions: 50000001 cycles: 12503412 heartbeat IPC: 4 cumulative IPC: 3.999 (Simulation time: 01 hr 23 min 11 sec)
Warmup finished CPU 2 instructions: 50000001 cycles: 12503412 cumulative IPC: 3.999 (Simulation time: 01 hr 23 min 11 sec)
Heartbeat CPU 7 instructions: 50000001 cycles: 12503441 heartbeat IPC: 4 cumulative IPC: 3.999 (Simulation time: 01 hr 23 min 11 sec)
Warmup finished CPU 7 instructions: 50000001 cycles: 12503441 cumulative IPC: 3.999 (Simulation time: 01 hr 23 min 11 sec)
Heartbeat CPU 3 instructions: 50000001 cycles: 12503453 heartbeat IPC: 4 cumulative IPC: 3.999 (Simulation time: 01 hr 23 min 11 sec)
Warmup finished CPU 3 instructions: 50000001 cycles: 12503453 cumulative IPC: 3.999 (Simulation time: 01 hr 23 min 11 sec)
Heartbeat CPU 15 instructions: 50000001 cycles: 12503461 heartbeat IPC: 4 cumulative IPC: 3.999 (Simulation time: 01 hr 23 min 11 sec)
Warmup finished CPU 15 instructions: 50000001 cycles: 12503461 cumulative IPC: 3.999 (Simulation time: 01 hr 23 min 11 sec)
*** Reached end of trace: (10, "/home/harshraj/COALESCE-Hashed-Perceptron-Cache-Replacement-Policy/simulator/traces/canneal_big2.champsimtrace")
*** Reached end of trace: (6, "/home/harshraj/COALESCE-Hashed-Perceptron-Cache-Replacement-Policy/simulator/traces/canneal_big2.champsimtrace")
*** Reached end of trace: (14, "/home/harshraj/COALESCE-Hashed-Perceptron-Cache-Replacement-Policy/simulator/traces/canneal_big2.champsimtrace")
Heartbeat CPU 10 instructions: 50000001 cycles: 12503606 heartbeat IPC: 4 cumulative IPC: 3.999 (Simulation time: 01 hr 23 min 11 sec)
Warmup finished CPU 10 instructions: 50000001 cycles: 12503606 cumulative IPC: 3.999 (Simulation time: 01 hr 23 min 11 sec)
Heartbeat CPU 6 instructions: 50000001 cycles: 12503608 heartbeat IPC: 4 cumulative IPC: 3.999 (Simulation time: 01 hr 23 min 11 sec)
Warmup finished CPU 6 instructions: 50000001 cycles: 12503608 cumulative IPC: 3.999 (Simulation time: 01 hr 23 min 11 sec)
Heartbeat CPU 14 instructions: 50000001 cycles: 12503612 heartbeat IPC: 4 cumulative IPC: 3.999 (Simulation time: 01 hr 23 min 11 sec)
Warmup finished CPU 14 instructions: 50000001 cycles: 12503612 cumulative IPC: 3.999 (Simulation time: 01 hr 23 min 11 sec)
*** Reached end of trace: (13, "/home/harshraj/COALESCE-Hashed-Perceptron-Cache-Replacement-Policy/simulator/traces/canneal_big1.champsimtrace")
*** Reached end of trace: (1, "/home/harshraj/COALESCE-Hashed-Perceptron-Cache-Replacement-Policy/simulator/traces/canneal_big1.champsimtrace")
*** Reached end of trace: (9, "/home/harshraj/COALESCE-Hashed-Perceptron-Cache-Replacement-Policy/simulator/traces/canneal_big1.champsimtrace")
Heartbeat CPU 13 instructions: 20000004 cycles: 12707489 heartbeat IPC: 1.759 cumulative IPC: 1.574 (Simulation time: 01 hr 24 min 43 sec)
Heartbeat CPU 1 instructions: 20000004 cycles: 12707499 heartbeat IPC: 1.759 cumulative IPC: 1.574 (Simulation time: 01 hr 24 min 43 sec)
Heartbeat CPU 9 instructions: 20000004 cycles: 12707539 heartbeat IPC: 1.759 cumulative IPC: 1.574 (Simulation time: 01 hr 24 min 43 sec)
*** Reached end of trace: (5, "/home/harshraj/COALESCE-Hashed-Perceptron-Cache-Replacement-Policy/simulator/traces/canneal_big1.champsimtrace")
Heartbeat CPU 5 instructions: 20000004 cycles: 12726932 heartbeat IPC: 1.755 cumulative IPC: 1.571 (Simulation time: 01 hr 24 min 51 sec)
*** Reached end of trace: (8, "/home/harshraj/COALESCE-Hashed-Perceptron-Cache-Replacement-Policy/simulator/traces/canneal_big0.champsimtrace")
*** Reached end of trace: (0, "/home/harshraj/COALESCE-Hashed-Perceptron-Cache-Replacement-Policy/simulator/traces/canneal_big0.champsimtrace")
*** Reached end of trace: (12, "/home/harshraj/COALESCE-Hashed-Perceptron-Cache-Replacement-Policy/simulator/traces/canneal_big0.champsimtrace")
*** Reached end of trace: (4, "/home/harshraj/COALESCE-Hashed-Perceptron-Cache-Replacement-Policy/simulator/traces/canneal_big0.champsimtrace")
*** Reached end of trace: (11, "/home/harshraj/COALESCE-Hashed-Perceptron-Cache-Replacement-Policy/simulator/traces/canneal_big3.champsimtrace")
*** Reached end of trace: (2, "/home/harshraj/COALESCE-Hashed-Perceptron-Cache-Replacement-Policy/simulator/traces/canneal_big2.champsimtrace")
*** Reached end of trace: (7, "/home/harshraj/COALESCE-Hashed-Perceptron-Cache-Replacement-Policy/simulator/traces/canneal_big3.champsimtrace")
*** Reached end of trace: (3, "/home/harshraj/COALESCE-Hashed-Perceptron-Cache-Replacement-Policy/simulator/traces/canneal_big3.champsimtrace")
*** Reached end of trace: (15, "/home/harshraj/COALESCE-Hashed-Perceptron-Cache-Replacement-Policy/simulator/traces/canneal_big3.champsimtrace")
*** Reached end of trace: (10, "/home/harshraj/COALESCE-Hashed-Perceptron-Cache-Replacement-Policy/simulator/traces/canneal_big2.champsimtrace")
*** Reached end of trace: (6, "/home/harshraj/COALESCE-Hashed-Perceptron-Cache-Replacement-Policy/simulator/traces/canneal_big2.champsimtrace")
*** Reached end of trace: (14, "/home/harshraj/COALESCE-Hashed-Perceptron-Cache-Replacement-Policy/simulator/traces/canneal_big2.champsimtrace")
*** Reached end of trace: (11, "/home/harshraj/COALESCE-Hashed-Perceptron-Cache-Replacement-Policy/simulator/traces/canneal_big3.champsimtrace")
Heartbeat CPU 11 instructions: 60000001 cycles: 15003263 heartbeat IPC: 4 cumulative IPC: 3.999 (Simulation time: 01 hr 39 min 00 sec)
*** Reached end of trace: (2, "/home/harshraj/COALESCE-Hashed-Perceptron-Cache-Replacement-Policy/simulator/traces/canneal_big2.champsimtrace")
*** Reached end of trace: (7, "/home/harshraj/COALESCE-Hashed-Perceptron-Cache-Replacement-Policy/simulator/traces/canneal_big3.champsimtrace")
*** Reached end of trace: (3, "/home/harshraj/COALESCE-Hashed-Perceptron-Cache-Replacement-Policy/simulator/traces/canneal_big3.champsimtrace")
*** Reached end of trace: (15, "/home/harshraj/COALESCE-Hashed-Perceptron-Cache-Replacement-Policy/simulator/traces/canneal_big3.champsimtrace")
Heartbeat CPU 2 instructions: 60000001 cycles: 15003412 heartbeat IPC: 4 cumulative IPC: 3.999 (Simulation time: 01 hr 39 min 00 sec)
Heartbeat CPU 7 instructions: 60000001 cycles: 15003441 heartbeat IPC: 4 cumulative IPC: 3.999 (Simulation time: 01 hr 39 min 00 sec)
Heartbeat CPU 3 instructions: 60000001 cycles: 15003453 heartbeat IPC: 4 cumulative IPC: 3.999 (Simulation time: 01 hr 39 min 00 sec)
Heartbeat CPU 15 instructions: 60000001 cycles: 15003461 heartbeat IPC: 4 cumulative IPC: 3.999 (Simulation time: 01 hr 39 min 00 sec)
*** Reached end of trace: (10, "/home/harshraj/COALESCE-Hashed-Perceptron-Cache-Replacement-Policy/simulator/traces/canneal_big2.champsimtrace")
*** Reached end of trace: (6, "/home/harshraj/COALESCE-Hashed-Perceptron-Cache-Replacement-Policy/simulator/traces/canneal_big2.champsimtrace")
*** Reached end of trace: (14, "/home/harshraj/COALESCE-Hashed-Perceptron-Cache-Replacement-Policy/simulator/traces/canneal_big2.champsimtrace")
Heartbeat CPU 10 instructions: 60000001 cycles: 15003606 heartbeat IPC: 4 cumulative IPC: 3.999 (Simulation time: 01 hr 39 min 00 sec)
Heartbeat CPU 6 instructions: 60000001 cycles: 15003608 heartbeat IPC: 4 cumulative IPC: 3.999 (Simulation time: 01 hr 39 min 00 sec)
Heartbeat CPU 14 instructions: 60000001 cycles: 15003612 heartbeat IPC: 4 cumulative IPC: 3.999 (Simulation time: 01 hr 39 min 00 sec)
*** Reached end of trace: (8, "/home/harshraj/COALESCE-Hashed-Perceptron-Cache-Replacement-Policy/simulator/traces/canneal_big0.champsimtrace")
Heartbeat CPU 8 instructions: 40000012 cycles: 15492667 heartbeat IPC: 2.603 cumulative IPC: 2.582 (Simulation time: 01 hr 42 min 28 sec)
*** Reached end of trace: (0, "/home/harshraj/COALESCE-Hashed-Perceptron-Cache-Replacement-Policy/simulator/traces/canneal_big0.champsimtrace")
Heartbeat CPU 0 instructions: 40000012 cycles: 15496818 heartbeat IPC: 2.603 cumulative IPC: 2.581 (Simulation time: 01 hr 42 min 30 sec)
*** Reached end of trace: (12, "/home/harshraj/COALESCE-Hashed-Perceptron-Cache-Replacement-Policy/simulator/traces/canneal_big0.champsimtrace")
Heartbeat CPU 12 instructions: 40000012 cycles: 15497225 heartbeat IPC: 2.602 cumulative IPC: 2.581 (Simulation time: 01 hr 42 min 30 sec)
*** Reached end of trace: (4, "/home/harshraj/COALESCE-Hashed-Perceptron-Cache-Replacement-Policy/simulator/traces/canneal_big0.champsimtrace")
Heartbeat CPU 4 instructions: 40000012 cycles: 15535392 heartbeat IPC: 2.595 cumulative IPC: 2.575 (Simulation time: 01 hr 42 min 47 sec)
*** Reached end of trace: (13, "/home/harshraj/COALESCE-Hashed-Perceptron-Cache-Replacement-Policy/simulator/traces/canneal_big1.champsimtrace")
*** Reached end of trace: (1, "/home/harshraj/COALESCE-Hashed-Perceptron-Cache-Replacement-Policy/simulator/traces/canneal_big1.champsimtrace")
*** Reached end of trace: (9, "/home/harshraj/COALESCE-Hashed-Perceptron-Cache-Replacement-Policy/simulator/traces/canneal_big1.champsimtrace")
*** Reached end of trace: (5, "/home/harshraj/COALESCE-Hashed-Perceptron-Cache-Replacement-Policy/simulator/traces/canneal_big1.champsimtrace")
*** Reached end of trace: (11, "/home/harshraj/COALESCE-Hashed-Perceptron-Cache-Replacement-Policy/simulator/traces/canneal_big3.champsimtrace")
*** Reached end of trace: (2, "/home/harshraj/COALESCE-Hashed-Perceptron-Cache-Replacement-Policy/simulator/traces/canneal_big2.champsimtrace")
*** Reached end of trace: (7, "/home/harshraj/COALESCE-Hashed-Perceptron-Cache-Replacement-Policy/simulator/traces/canneal_big3.champsimtrace")
*** Reached end of trace: (3, "/home/harshraj/COALESCE-Hashed-Perceptron-Cache-Replacement-Policy/simulator/traces/canneal_big3.champsimtrace")
*** Reached end of trace: (15, "/home/harshraj/COALESCE-Hashed-Perceptron-Cache-Replacement-Policy/simulator/traces/canneal_big3.champsimtrace")
*** Reached end of trace: (10, "/home/harshraj/COALESCE-Hashed-Perceptron-Cache-Replacement-Policy/simulator/traces/canneal_big2.champsimtrace")
*** Reached end of trace: (6, "/home/harshraj/COALESCE-Hashed-Perceptron-Cache-Replacement-Policy/simulator/traces/canneal_big2.champsimtrace")
*** Reached end of trace: (14, "/home/harshraj/COALESCE-Hashed-Perceptron-Cache-Replacement-Policy/simulator/traces/canneal_big2.champsimtrace")
*** Reached end of trace: (8, "/home/harshraj/COALESCE-Hashed-Perceptron-Cache-Replacement-Policy/simulator/traces/canneal_big0.champsimtrace")
*** Reached end of trace: (0, "/home/harshraj/COALESCE-Hashed-Perceptron-Cache-Replacement-Policy/simulator/traces/canneal_big0.champsimtrace")
*** Reached end of trace: (12, "/home/harshraj/COALESCE-Hashed-Perceptron-Cache-Replacement-Policy/simulator/traces/canneal_big0.champsimtrace")
*** Reached end of trace: (4, "/home/harshraj/COALESCE-Hashed-Perceptron-Cache-Replacement-Policy/simulator/traces/canneal_big0.champsimtrace")
*** Reached end of trace: (11, "/home/harshraj/COALESCE-Hashed-Perceptron-Cache-Replacement-Policy/simulator/traces/canneal_big3.champsimtrace")
Heartbeat CPU 11 instructions: 70000001 cycles: 17503263 heartbeat IPC: 4 cumulative IPC: 3.999 (Simulation time: 01 hr 55 min 43 sec)
*** Reached end of trace: (2, "/home/harshraj/COALESCE-Hashed-Perceptron-Cache-Replacement-Policy/simulator/traces/canneal_big2.champsimtrace")
*** Reached end of trace: (7, "/home/harshraj/COALESCE-Hashed-Perceptron-Cache-Replacement-Policy/simulator/traces/canneal_big3.champsimtrace")
*** Reached end of trace: (3, "/home/harshraj/COALESCE-Hashed-Perceptron-Cache-Replacement-Policy/simulator/traces/canneal_big3.champsimtrace")
*** Reached end of trace: (15, "/home/harshraj/COALESCE-Hashed-Perceptron-Cache-Replacement-Policy/simulator/traces/canneal_big3.champsimtrace")
Heartbeat CPU 2 instructions: 70000001 cycles: 17503412 heartbeat IPC: 4 cumulative IPC: 3.999 (Simulation time: 01 hr 55 min 43 sec)
Heartbeat CPU 7 instructions: 70000001 cycles: 17503441 heartbeat IPC: 4 cumulative IPC: 3.999 (Simulation time: 01 hr 55 min 43 sec)
Heartbeat CPU 3 instructions: 70000001 cycles: 17503453 heartbeat IPC: 4 cumulative IPC: 3.999 (Simulation time: 01 hr 55 min 43 sec)
Heartbeat CPU 15 instructions: 70000001 cycles: 17503461 heartbeat IPC: 4 cumulative IPC: 3.999 (Simulation time: 01 hr 55 min 43 sec)
*** Reached end of trace: (10, "/home/harshraj/COALESCE-Hashed-Perceptron-Cache-Replacement-Policy/simulator/traces/canneal_big2.champsimtrace")
*** Reached end of trace: (6, "/home/harshraj/COALESCE-Hashed-Perceptron-Cache-Replacement-Policy/simulator/traces/canneal_big2.champsimtrace")
*** Reached end of trace: (14, "/home/harshraj/COALESCE-Hashed-Perceptron-Cache-Replacement-Policy/simulator/traces/canneal_big2.champsimtrace")
Heartbeat CPU 10 instructions: 70000001 cycles: 17503606 heartbeat IPC: 4 cumulative IPC: 3.999 (Simulation time: 01 hr 55 min 43 sec)
Heartbeat CPU 6 instructions: 70000001 cycles: 17503608 heartbeat IPC: 4 cumulative IPC: 3.999 (Simulation time: 01 hr 55 min 43 sec)
Heartbeat CPU 14 instructions: 70000001 cycles: 17503612 heartbeat IPC: 4 cumulative IPC: 3.999 (Simulation time: 01 hr 55 min 43 sec)
*** Reached end of trace: (13, "/home/harshraj/COALESCE-Hashed-Perceptron-Cache-Replacement-Policy/simulator/traces/canneal_big1.champsimtrace")
*** Reached end of trace: (1, "/home/harshraj/COALESCE-Hashed-Perceptron-Cache-Replacement-Policy/simulator/traces/canneal_big1.champsimtrace")
*** Reached end of trace: (9, "/home/harshraj/COALESCE-Hashed-Perceptron-Cache-Replacement-Policy/simulator/traces/canneal_big1.champsimtrace")
Heartbeat CPU 13 instructions: 30000004 cycles: 18391631 heartbeat IPC: 1.759 cumulative IPC: 1.631 (Simulation time: 02 hr 00 min 26 sec)
Heartbeat CPU 1 instructions: 30000004 cycles: 18391645 heartbeat IPC: 1.759 cumulative IPC: 1.631 (Simulation time: 02 hr 00 min 26 sec)
Heartbeat CPU 9 instructions: 30000004 cycles: 18391655 heartbeat IPC: 1.759 cumulative IPC: 1.631 (Simulation time: 02 hr 00 min 26 sec)
*** Reached end of trace: (5, "/home/harshraj/COALESCE-Hashed-Perceptron-Cache-Replacement-Policy/simulator/traces/canneal_big1.champsimtrace")
Heartbeat CPU 5 instructions: 30000004 cycles: 18424043 heartbeat IPC: 1.755 cumulative IPC: 1.628 (Simulation time: 02 hr 00 min 35 sec)
*** Reached end of trace: (11, "/home/harshraj/COALESCE-Hashed-Perceptron-Cache-Replacement-Policy/simulator/traces/canneal_big3.champsimtrace")
*** Reached end of trace: (2, "/home/harshraj/COALESCE-Hashed-Perceptron-Cache-Replacement-Policy/simulator/traces/canneal_big2.champsimtrace")
*** Reached end of trace: (7, "/home/harshraj/COALESCE-Hashed-Perceptron-Cache-Replacement-Policy/simulator/traces/canneal_big3.champsimtrace")
*** Reached end of trace: (3, "/home/harshraj/COALESCE-Hashed-Perceptron-Cache-Replacement-Policy/simulator/traces/canneal_big3.champsimtrace")
*** Reached end of trace: (15, "/home/harshraj/COALESCE-Hashed-Perceptron-Cache-Replacement-Policy/simulator/traces/canneal_big3.champsimtrace")
*** Reached end of trace: (10, "/home/harshraj/COALESCE-Hashed-Perceptron-Cache-Replacement-Policy/simulator/traces/canneal_big2.champsimtrace")
*** Reached end of trace: (6, "/home/harshraj/COALESCE-Hashed-Perceptron-Cache-Replacement-Policy/simulator/traces/canneal_big2.champsimtrace")
*** Reached end of trace: (14, "/home/harshraj/COALESCE-Hashed-Perceptron-Cache-Replacement-Policy/simulator/traces/canneal_big2.champsimtrace")
*** Reached end of trace: (8, "/home/harshraj/COALESCE-Hashed-Perceptron-Cache-Replacement-Policy/simulator/traces/canneal_big0.champsimtrace")
Warmup finished CPU 8 instructions: 50000000 cycles: 19334465 cumulative IPC: 2.586 (Simulation time: 02 hr 06 min 53 sec)
Heartbeat CPU 8 instructions: 50000015 cycles: 19334468 heartbeat IPC: 2.603 cumulative IPC: 2.586 (Simulation time: 02 hr 06 min 53 sec)
*** Reached end of trace: (0, "/home/harshraj/COALESCE-Hashed-Perceptron-Cache-Replacement-Policy/simulator/traces/canneal_big0.champsimtrace")
Warmup finished CPU 0 instructions: 50000000 cycles: 19339628 cumulative IPC: 2.585 (Simulation time: 02 hr 06 min 55 sec)
Heartbeat CPU 0 instructions: 50000015 cycles: 19339631 heartbeat IPC: 2.602 cumulative IPC: 2.585 (Simulation time: 02 hr 06 min 55 sec)
*** Reached end of trace: (12, "/home/harshraj/COALESCE-Hashed-Perceptron-Cache-Replacement-Policy/simulator/traces/canneal_big0.champsimtrace")
Warmup finished CPU 12 instructions: 50000000 cycles: 19340037 cumulative IPC: 2.585 (Simulation time: 02 hr 06 min 55 sec)
Heartbeat CPU 12 instructions: 50000015 cycles: 19340040 heartbeat IPC: 2.602 cumulative IPC: 2.585 (Simulation time: 02 hr 06 min 55 sec)
*** Reached end of trace: (4, "/home/harshraj/COALESCE-Hashed-Perceptron-Cache-Replacement-Policy/simulator/traces/canneal_big0.champsimtrace")
Warmup finished CPU 4 instructions: 50000000 cycles: 19389320 cumulative IPC: 2.579 (Simulation time: 02 hr 07 min 18 sec)
Heartbeat CPU 4 instructions: 50000015 cycles: 19389323 heartbeat IPC: 2.595 cumulative IPC: 2.579 (Simulation time: 02 hr 07 min 18 sec)
*** Reached end of trace: (11, "/home/harshraj/COALESCE-Hashed-Perceptron-Cache-Replacement-Policy/simulator/traces/canneal_big3.champsimtrace")
Heartbeat CPU 11 instructions: 80000001 cycles: 20003263 heartbeat IPC: 4 cumulative IPC: 3.999 (Simulation time: 02 hr 11 min 56 sec)
*** Reached end of trace: (2, "/home/harshraj/COALESCE-Hashed-Perceptron-Cache-Replacement-Policy/simulator/traces/canneal_big2.champsimtrace")
*** Reached end of trace: (7, "/home/harshraj/COALESCE-Hashed-Perceptron-Cache-Replacement-Policy/simulator/traces/canneal_big3.champsimtrace")
*** Reached end of trace: (3, "/home/harshraj/COALESCE-Hashed-Perceptron-Cache-Replacement-Policy/simulator/traces/canneal_big3.champsimtrace")
*** Reached end of trace: (15, "/home/harshraj/COALESCE-Hashed-Perceptron-Cache-Replacement-Policy/simulator/traces/canneal_big3.champsimtrace")
Heartbeat CPU 2 instructions: 80000001 cycles: 20003412 heartbeat IPC: 4 cumulative IPC: 3.999 (Simulation time: 02 hr 11 min 56 sec)
Heartbeat CPU 7 instructions: 80000001 cycles: 20003441 heartbeat IPC: 4 cumulative IPC: 3.999 (Simulation time: 02 hr 11 min 56 sec)
Heartbeat CPU 3 instructions: 80000001 cycles: 20003453 heartbeat IPC: 4 cumulative IPC: 3.999 (Simulation time: 02 hr 11 min 56 sec)
Heartbeat CPU 15 instructions: 80000001 cycles: 20003461 heartbeat IPC: 4 cumulative IPC: 3.999 (Simulation time: 02 hr 11 min 56 sec)
*** Reached end of trace: (10, "/home/harshraj/COALESCE-Hashed-Perceptron-Cache-Replacement-Policy/simulator/traces/canneal_big2.champsimtrace")
*** Reached end of trace: (6, "/home/harshraj/COALESCE-Hashed-Perceptron-Cache-Replacement-Policy/simulator/traces/canneal_big2.champsimtrace")
*** Reached end of trace: (14, "/home/harshraj/COALESCE-Hashed-Perceptron-Cache-Replacement-Policy/simulator/traces/canneal_big2.champsimtrace")
Heartbeat CPU 10 instructions: 80000001 cycles: 20003606 heartbeat IPC: 4 cumulative IPC: 3.999 (Simulation time: 02 hr 11 min 56 sec)
Heartbeat CPU 6 instructions: 80000001 cycles: 20003608 heartbeat IPC: 4 cumulative IPC: 3.999 (Simulation time: 02 hr 11 min 56 sec)
Heartbeat CPU 14 instructions: 80000001 cycles: 20003612 heartbeat IPC: 4 cumulative IPC: 3.999 (Simulation time: 02 hr 11 min 56 sec)
*** Reached end of trace: (13, "/home/harshraj/COALESCE-Hashed-Perceptron-Cache-Replacement-Policy/simulator/traces/canneal_big1.champsimtrace")
*** Reached end of trace: (1, "/home/harshraj/COALESCE-Hashed-Perceptron-Cache-Replacement-Policy/simulator/traces/canneal_big1.champsimtrace")
*** Reached end of trace: (9, "/home/harshraj/COALESCE-Hashed-Perceptron-Cache-Replacement-Policy/simulator/traces/canneal_big1.champsimtrace")
*** Reached end of trace: (11, "/home/harshraj/COALESCE-Hashed-Perceptron-Cache-Replacement-Policy/simulator/traces/canneal_big3.champsimtrace")
*** Reached end of trace: (2, "/home/harshraj/COALESCE-Hashed-Perceptron-Cache-Replacement-Policy/simulator/traces/canneal_big2.champsimtrace")
*** Reached end of trace: (7, "/home/harshraj/COALESCE-Hashed-Perceptron-Cache-Replacement-Policy/simulator/traces/canneal_big3.champsimtrace")
*** Reached end of trace: (3, "/home/harshraj/COALESCE-Hashed-Perceptron-Cache-Replacement-Policy/simulator/traces/canneal_big3.champsimtrace")
*** Reached end of trace: (15, "/home/harshraj/COALESCE-Hashed-Perceptron-Cache-Replacement-Policy/simulator/traces/canneal_big3.champsimtrace")
*** Reached end of trace: (10, "/home/harshraj/COALESCE-Hashed-Perceptron-Cache-Replacement-Policy/simulator/traces/canneal_big2.champsimtrace")
*** Reached end of trace: (6, "/home/harshraj/COALESCE-Hashed-Perceptron-Cache-Replacement-Policy/simulator/traces/canneal_big2.champsimtrace")
*** Reached end of trace: (14, "/home/harshraj/COALESCE-Hashed-Perceptron-Cache-Replacement-Policy/simulator/traces/canneal_big2.champsimtrace")
*** Reached end of trace: (8, "/home/harshraj/COALESCE-Hashed-Perceptron-Cache-Replacement-Policy/simulator/traces/canneal_big0.champsimtrace")
*** Reached end of trace: (0, "/home/harshraj/COALESCE-Hashed-Perceptron-Cache-Replacement-Policy/simulator/traces/canneal_big0.champsimtrace")
*** Reached end of trace: (12, "/home/harshraj/COALESCE-Hashed-Perceptron-Cache-Replacement-Policy/simulator/traces/canneal_big0.champsimtrace")
*** Reached end of trace: (5, "/home/harshraj/COALESCE-Hashed-Perceptron-Cache-Replacement-Policy/simulator/traces/canneal_big1.champsimtrace")
*** Reached end of trace: (4, "/home/harshraj/COALESCE-Hashed-Perceptron-Cache-Replacement-Policy/simulator/traces/canneal_big0.champsimtrace")
*** Reached end of trace: (11, "/home/harshraj/COALESCE-Hashed-Perceptron-Cache-Replacement-Policy/simulator/traces/canneal_big3.champsimtrace")
Heartbeat CPU 11 instructions: 90000001 cycles: 22503263 heartbeat IPC: 4 cumulative IPC: 3.999 (Simulation time: 02 hr 28 min 32 sec)
*** Reached end of trace: (2, "/home/harshraj/COALESCE-Hashed-Perceptron-Cache-Replacement-Policy/simulator/traces/canneal_big2.champsimtrace")
*** Reached end of trace: (7, "/home/harshraj/COALESCE-Hashed-Perceptron-Cache-Replacement-Policy/simulator/traces/canneal_big3.champsimtrace")
*** Reached end of trace: (3, "/home/harshraj/COALESCE-Hashed-Perceptron-Cache-Replacement-Policy/simulator/traces/canneal_big3.champsimtrace")
*** Reached end of trace: (15, "/home/harshraj/COALESCE-Hashed-Perceptron-Cache-Replacement-Policy/simulator/traces/canneal_big3.champsimtrace")
Heartbeat CPU 2 instructions: 90000001 cycles: 22503412 heartbeat IPC: 4 cumulative IPC: 3.999 (Simulation time: 02 hr 28 min 32 sec)
Heartbeat CPU 7 instructions: 90000001 cycles: 22503441 heartbeat IPC: 4 cumulative IPC: 3.999 (Simulation time: 02 hr 28 min 32 sec)
Heartbeat CPU 3 instructions: 90000001 cycles: 22503453 heartbeat IPC: 4 cumulative IPC: 3.999 (Simulation time: 02 hr 28 min 32 sec)
Heartbeat CPU 15 instructions: 90000001 cycles: 22503461 heartbeat IPC: 4 cumulative IPC: 3.999 (Simulation time: 02 hr 28 min 32 sec)
*** Reached end of trace: (10, "/home/harshraj/COALESCE-Hashed-Perceptron-Cache-Replacement-Policy/simulator/traces/canneal_big2.champsimtrace")
*** Reached end of trace: (6, "/home/harshraj/COALESCE-Hashed-Perceptron-Cache-Replacement-Policy/simulator/traces/canneal_big2.champsimtrace")
*** Reached end of trace: (14, "/home/harshraj/COALESCE-Hashed-Perceptron-Cache-Replacement-Policy/simulator/traces/canneal_big2.champsimtrace")
Heartbeat CPU 10 instructions: 90000001 cycles: 22503606 heartbeat IPC: 4 cumulative IPC: 3.999 (Simulation time: 02 hr 28 min 32 sec)
Heartbeat CPU 6 instructions: 90000001 cycles: 22503608 heartbeat IPC: 4 cumulative IPC: 3.999 (Simulation time: 02 hr 28 min 32 sec)
Heartbeat CPU 14 instructions: 90000001 cycles: 22503612 heartbeat IPC: 4 cumulative IPC: 3.999 (Simulation time: 02 hr 28 min 32 sec)
*** Reached end of trace: (8, "/home/harshraj/COALESCE-Hashed-Perceptron-Cache-Replacement-Policy/simulator/traces/canneal_big0.champsimtrace")
Heartbeat CPU 8 instructions: 60000018 cycles: 23176269 heartbeat IPC: 2.603 cumulative IPC: 2.589 (Simulation time: 02 hr 32 min 13 sec)
*** Reached end of trace: (0, "/home/harshraj/COALESCE-Hashed-Perceptron-Cache-Replacement-Policy/simulator/traces/canneal_big0.champsimtrace")
Heartbeat CPU 0 instructions: 60000018 cycles: 23182444 heartbeat IPC: 2.602 cumulative IPC: 2.588 (Simulation time: 02 hr 32 min 16 sec)
*** Reached end of trace: (12, "/home/harshraj/COALESCE-Hashed-Perceptron-Cache-Replacement-Policy/simulator/traces/canneal_big0.champsimtrace")
Heartbeat CPU 12 instructions: 60000018 cycles: 23182853 heartbeat IPC: 2.602 cumulative IPC: 2.588 (Simulation time: 02 hr 32 min 16 sec)
*** Reached end of trace: (4, "/home/harshraj/COALESCE-Hashed-Perceptron-Cache-Replacement-Policy/simulator/traces/canneal_big0.champsimtrace")
Heartbeat CPU 4 instructions: 60000018 cycles: 23243254 heartbeat IPC: 2.595 cumulative IPC: 2.581 (Simulation time: 02 hr 32 min 41 sec)
*** Reached end of trace: (11, "/home/harshraj/COALESCE-Hashed-Perceptron-Cache-Replacement-Policy/simulator/traces/canneal_big3.champsimtrace")
*** Reached end of trace: (2, "/home/harshraj/COALESCE-Hashed-Perceptron-Cache-Replacement-Policy/simulator/traces/canneal_big2.champsimtrace")
*** Reached end of trace: (7, "/home/harshraj/COALESCE-Hashed-Perceptron-Cache-Replacement-Policy/simulator/traces/canneal_big3.champsimtrace")
*** Reached end of trace: (3, "/home/harshraj/COALESCE-Hashed-Perceptron-Cache-Replacement-Policy/simulator/traces/canneal_big3.champsimtrace")
*** Reached end of trace: (15, "/home/harshraj/COALESCE-Hashed-Perceptron-Cache-Replacement-Policy/simulator/traces/canneal_big3.champsimtrace")
*** Reached end of trace: (10, "/home/harshraj/COALESCE-Hashed-Perceptron-Cache-Replacement-Policy/simulator/traces/canneal_big2.champsimtrace")
*** Reached end of trace: (6, "/home/harshraj/COALESCE-Hashed-Perceptron-Cache-Replacement-Policy/simulator/traces/canneal_big2.champsimtrace")
*** Reached end of trace: (14, "/home/harshraj/COALESCE-Hashed-Perceptron-Cache-Replacement-Policy/simulator/traces/canneal_big2.champsimtrace")
*** Reached end of trace: (13, "/home/harshraj/COALESCE-Hashed-Perceptron-Cache-Replacement-Policy/simulator/traces/canneal_big1.champsimtrace")
*** Reached end of trace: (1, "/home/harshraj/COALESCE-Hashed-Perceptron-Cache-Replacement-Policy/simulator/traces/canneal_big1.champsimtrace")
*** Reached end of trace: (9, "/home/harshraj/COALESCE-Hashed-Perceptron-Cache-Replacement-Policy/simulator/traces/canneal_big1.champsimtrace")
Heartbeat CPU 13 instructions: 40000006 cycles: 24075652 heartbeat IPC: 1.759 cumulative IPC: 1.661 (Simulation time: 02 hr 38 min 55 sec)
Heartbeat CPU 1 instructions: 40000006 cycles: 24075660 heartbeat IPC: 1.759 cumulative IPC: 1.661 (Simulation time: 02 hr 38 min 55 sec)
Heartbeat CPU 9 instructions: 40000006 cycles: 24075670 heartbeat IPC: 1.759 cumulative IPC: 1.661 (Simulation time: 02 hr 38 min 55 sec)
*** Reached end of trace: (5, "/home/harshraj/COALESCE-Hashed-Perceptron-Cache-Replacement-Policy/simulator/traces/canneal_big1.champsimtrace")
Heartbeat CPU 5 instructions: 40000006 cycles: 24121239 heartbeat IPC: 1.755 cumulative IPC: 1.658 (Simulation time: 02 hr 39 min 14 sec)
*** Reached end of trace: (11, "/home/harshraj/COALESCE-Hashed-Perceptron-Cache-Replacement-Policy/simulator/traces/canneal_big3.champsimtrace")
Heartbeat CPU 11 instructions: 100000001 cycles: 25003263 heartbeat IPC: 4 cumulative IPC: 3.999 (Simulation time: 02 hr 45 min 42 sec)
*** Reached end of trace: (2, "/home/harshraj/COALESCE-Hashed-Perceptron-Cache-Replacement-Policy/simulator/traces/canneal_big2.champsimtrace")
*** Reached end of trace: (7, "/home/harshraj/COALESCE-Hashed-Perceptron-Cache-Replacement-Policy/simulator/traces/canneal_big3.champsimtrace")
*** Reached end of trace: (3, "/home/harshraj/COALESCE-Hashed-Perceptron-Cache-Replacement-Policy/simulator/traces/canneal_big3.champsimtrace")
*** Reached end of trace: (15, "/home/harshraj/COALESCE-Hashed-Perceptron-Cache-Replacement-Policy/simulator/traces/canneal_big3.champsimtrace")
Heartbeat CPU 2 instructions: 100000001 cycles: 25003412 heartbeat IPC: 4 cumulative IPC: 3.999 (Simulation time: 02 hr 45 min 42 sec)
Heartbeat CPU 7 instructions: 100000001 cycles: 25003441 heartbeat IPC: 4 cumulative IPC: 3.999 (Simulation time: 02 hr 45 min 42 sec)
Heartbeat CPU 3 instructions: 100000001 cycles: 25003453 heartbeat IPC: 4 cumulative IPC: 3.999 (Simulation time: 02 hr 45 min 42 sec)
Heartbeat CPU 15 instructions: 100000001 cycles: 25003461 heartbeat IPC: 4 cumulative IPC: 3.999 (Simulation time: 02 hr 45 min 42 sec)
*** Reached end of trace: (10, "/home/harshraj/COALESCE-Hashed-Perceptron-Cache-Replacement-Policy/simulator/traces/canneal_big2.champsimtrace")
*** Reached end of trace: (6, "/home/harshraj/COALESCE-Hashed-Perceptron-Cache-Replacement-Policy/simulator/traces/canneal_big2.champsimtrace")
*** Reached end of trace: (14, "/home/harshraj/COALESCE-Hashed-Perceptron-Cache-Replacement-Policy/simulator/traces/canneal_big2.champsimtrace")
Heartbeat CPU 10 instructions: 100000001 cycles: 25003606 heartbeat IPC: 4 cumulative IPC: 3.999 (Simulation time: 02 hr 45 min 42 sec)
Heartbeat CPU 6 instructions: 100000001 cycles: 25003608 heartbeat IPC: 4 cumulative IPC: 3.999 (Simulation time: 02 hr 45 min 42 sec)
Heartbeat CPU 14 instructions: 100000001 cycles: 25003612 heartbeat IPC: 4 cumulative IPC: 3.999 (Simulation time: 02 hr 45 min 42 sec)
*** Reached end of trace: (8, "/home/harshraj/COALESCE-Hashed-Perceptron-Cache-Replacement-Policy/simulator/traces/canneal_big0.champsimtrace")
*** Reached end of trace: (0, "/home/harshraj/COALESCE-Hashed-Perceptron-Cache-Replacement-Policy/simulator/traces/canneal_big0.champsimtrace")
*** Reached end of trace: (12, "/home/harshraj/COALESCE-Hashed-Perceptron-Cache-Replacement-Policy/simulator/traces/canneal_big0.champsimtrace")
*** Reached end of trace: (4, "/home/harshraj/COALESCE-Hashed-Perceptron-Cache-Replacement-Policy/simulator/traces/canneal_big0.champsimtrace")
*** Reached end of trace: (11, "/home/harshraj/COALESCE-Hashed-Perceptron-Cache-Replacement-Policy/simulator/traces/canneal_big3.champsimtrace")
*** Reached end of trace: (2, "/home/harshraj/COALESCE-Hashed-Perceptron-Cache-Replacement-Policy/simulator/traces/canneal_big2.champsimtrace")
*** Reached end of trace: (7, "/home/harshraj/COALESCE-Hashed-Perceptron-Cache-Replacement-Policy/simulator/traces/canneal_big3.champsimtrace")
*** Reached end of trace: (3, "/home/harshraj/COALESCE-Hashed-Perceptron-Cache-Replacement-Policy/simulator/traces/canneal_big3.champsimtrace")
*** Reached end of trace: (15, "/home/harshraj/COALESCE-Hashed-Perceptron-Cache-Replacement-Policy/simulator/traces/canneal_big3.champsimtrace")
*** Reached end of trace: (10, "/home/harshraj/COALESCE-Hashed-Perceptron-Cache-Replacement-Policy/simulator/traces/canneal_big2.champsimtrace")
*** Reached end of trace: (6, "/home/harshraj/COALESCE-Hashed-Perceptron-Cache-Replacement-Policy/simulator/traces/canneal_big2.champsimtrace")
*** Reached end of trace: (14, "/home/harshraj/COALESCE-Hashed-Perceptron-Cache-Replacement-Policy/simulator/traces/canneal_big2.champsimtrace")
*** Reached end of trace: (13, "/home/harshraj/COALESCE-Hashed-Perceptron-Cache-Replacement-Policy/simulator/traces/canneal_big1.champsimtrace")
*** Reached end of trace: (1, "/home/harshraj/COALESCE-Hashed-Perceptron-Cache-Replacement-Policy/simulator/traces/canneal_big1.champsimtrace")
*** Reached end of trace: (9, "/home/harshraj/COALESCE-Hashed-Perceptron-Cache-Replacement-Policy/simulator/traces/canneal_big1.champsimtrace")
*** Reached end of trace: (5, "/home/harshraj/COALESCE-Hashed-Perceptron-Cache-Replacement-Policy/simulator/traces/canneal_big1.champsimtrace")
*** Reached end of trace: (8, "/home/harshraj/COALESCE-Hashed-Perceptron-Cache-Replacement-Policy/simulator/traces/canneal_big0.champsimtrace")
Heartbeat CPU 8 instructions: 70000021 cycles: 27018070 heartbeat IPC: 2.603 cumulative IPC: 2.591 (Simulation time: 02 hr 58 min 41 sec)
*** Reached end of trace: (0, "/home/harshraj/COALESCE-Hashed-Perceptron-Cache-Replacement-Policy/simulator/traces/canneal_big0.champsimtrace")
Heartbeat CPU 0 instructions: 70000021 cycles: 27025259 heartbeat IPC: 2.602 cumulative IPC: 2.59 (Simulation time: 02 hr 58 min 43 sec)
*** Reached end of trace: (12, "/home/harshraj/COALESCE-Hashed-Perceptron-Cache-Replacement-Policy/simulator/traces/canneal_big0.champsimtrace")
Heartbeat CPU 12 instructions: 70000021 cycles: 27025668 heartbeat IPC: 2.602 cumulative IPC: 2.59 (Simulation time: 02 hr 58 min 43 sec)
*** Reached end of trace: (4, "/home/harshraj/COALESCE-Hashed-Perceptron-Cache-Replacement-Policy/simulator/traces/canneal_big0.champsimtrace")
Heartbeat CPU 4 instructions: 70000021 cycles: 27097185 heartbeat IPC: 2.595 cumulative IPC: 2.583 (Simulation time: 02 hr 59 min 07 sec)
*** Reached end of trace: (11, "/home/harshraj/COALESCE-Hashed-Perceptron-Cache-Replacement-Policy/simulator/traces/canneal_big3.champsimtrace")
Heartbeat CPU 11 instructions: 110000001 cycles: 27503263 heartbeat IPC: 4 cumulative IPC: 4 (Simulation time: 03 hr 01 min 15 sec)
*** Reached end of trace: (2, "/home/harshraj/COALESCE-Hashed-Perceptron-Cache-Replacement-Policy/simulator/traces/canneal_big2.champsimtrace")
*** Reached end of trace: (7, "/home/harshraj/COALESCE-Hashed-Perceptron-Cache-Replacement-Policy/simulator/traces/canneal_big3.champsimtrace")
*** Reached end of trace: (3, "/home/harshraj/COALESCE-Hashed-Perceptron-Cache-Replacement-Policy/simulator/traces/canneal_big3.champsimtrace")
*** Reached end of trace: (15, "/home/harshraj/COALESCE-Hashed-Perceptron-Cache-Replacement-Policy/simulator/traces/canneal_big3.champsimtrace")
Heartbeat CPU 2 instructions: 110000001 cycles: 27503412 heartbeat IPC: 4 cumulative IPC: 4 (Simulation time: 03 hr 01 min 15 sec)
Heartbeat CPU 7 instructions: 110000001 cycles: 27503441 heartbeat IPC: 4 cumulative IPC: 3.999 (Simulation time: 03 hr 01 min 15 sec)
Heartbeat CPU 3 instructions: 110000001 cycles: 27503453 heartbeat IPC: 4 cumulative IPC: 3.999 (Simulation time: 03 hr 01 min 15 sec)
Heartbeat CPU 15 instructions: 110000001 cycles: 27503461 heartbeat IPC: 4 cumulative IPC: 3.999 (Simulation time: 03 hr 01 min 15 sec)
*** Reached end of trace: (10, "/home/harshraj/COALESCE-Hashed-Perceptron-Cache-Replacement-Policy/simulator/traces/canneal_big2.champsimtrace")
*** Reached end of trace: (6, "/home/harshraj/COALESCE-Hashed-Perceptron-Cache-Replacement-Policy/simulator/traces/canneal_big2.champsimtrace")
*** Reached end of trace: (14, "/home/harshraj/COALESCE-Hashed-Perceptron-Cache-Replacement-Policy/simulator/traces/canneal_big2.champsimtrace")
Heartbeat CPU 10 instructions: 110000001 cycles: 27503606 heartbeat IPC: 4 cumulative IPC: 3.999 (Simulation time: 03 hr 01 min 15 sec)
Heartbeat CPU 6 instructions: 110000001 cycles: 27503608 heartbeat IPC: 4 cumulative IPC: 3.999 (Simulation time: 03 hr 01 min 15 sec)
Heartbeat CPU 14 instructions: 110000001 cycles: 27503612 heartbeat IPC: 4 cumulative IPC: 3.999 (Simulation time: 03 hr 01 min 15 sec)
*** Reached end of trace: (11, "/home/harshraj/COALESCE-Hashed-Perceptron-Cache-Replacement-Policy/simulator/traces/canneal_big3.champsimtrace")
*** Reached end of trace: (2, "/home/harshraj/COALESCE-Hashed-Perceptron-Cache-Replacement-Policy/simulator/traces/canneal_big2.champsimtrace")
*** Reached end of trace: (7, "/home/harshraj/COALESCE-Hashed-Perceptron-Cache-Replacement-Policy/simulator/traces/canneal_big3.champsimtrace")
*** Reached end of trace: (3, "/home/harshraj/COALESCE-Hashed-Perceptron-Cache-Replacement-Policy/simulator/traces/canneal_big3.champsimtrace")
*** Reached end of trace: (15, "/home/harshraj/COALESCE-Hashed-Perceptron-Cache-Replacement-Policy/simulator/traces/canneal_big3.champsimtrace")
*** Reached end of trace: (10, "/home/harshraj/COALESCE-Hashed-Perceptron-Cache-Replacement-Policy/simulator/traces/canneal_big2.champsimtrace")
*** Reached end of trace: (6, "/home/harshraj/COALESCE-Hashed-Perceptron-Cache-Replacement-Policy/simulator/traces/canneal_big2.champsimtrace")
*** Reached end of trace: (14, "/home/harshraj/COALESCE-Hashed-Perceptron-Cache-Replacement-Policy/simulator/traces/canneal_big2.champsimtrace")
*** Reached end of trace: (8, "/home/harshraj/COALESCE-Hashed-Perceptron-Cache-Replacement-Policy/simulator/traces/canneal_big0.champsimtrace")
*** Reached end of trace: (0, "/home/harshraj/COALESCE-Hashed-Perceptron-Cache-Replacement-Policy/simulator/traces/canneal_big0.champsimtrace")
*** Reached end of trace: (12, "/home/harshraj/COALESCE-Hashed-Perceptron-Cache-Replacement-Policy/simulator/traces/canneal_big0.champsimtrace")
*** Reached end of trace: (4, "/home/harshraj/COALESCE-Hashed-Perceptron-Cache-Replacement-Policy/simulator/traces/canneal_big0.champsimtrace")
*** Reached end of trace: (13, "/home/harshraj/COALESCE-Hashed-Perceptron-Cache-Replacement-Policy/simulator/traces/canneal_big1.champsimtrace")
*** Reached end of trace: (1, "/home/harshraj/COALESCE-Hashed-Perceptron-Cache-Replacement-Policy/simulator/traces/canneal_big1.champsimtrace")
*** Reached end of trace: (9, "/home/harshraj/COALESCE-Hashed-Perceptron-Cache-Replacement-Policy/simulator/traces/canneal_big1.champsimtrace")
Warmup finished CPU 13 instructions: 50000000 cycles: 29759720 cumulative IPC: 1.68 (Simulation time: 03 hr 16 min 27 sec)
Warmup finished CPU 1 instructions: 50000000 cycles: 29759723 cumulative IPC: 1.68 (Simulation time: 03 hr 16 min 27 sec)
Heartbeat CPU 13 instructions: 50000008 cycles: 29759738 heartbeat IPC: 1.759 cumulative IPC: 1.68 (Simulation time: 03 hr 16 min 27 sec)
Heartbeat CPU 1 instructions: 50000008 cycles: 29759742 heartbeat IPC: 1.759 cumulative IPC: 1.68 (Simulation time: 03 hr 16 min 27 sec)
Warmup finished CPU 9 instructions: 50000000 cycles: 29759760 cumulative IPC: 1.68 (Simulation time: 03 hr 16 min 27 sec)
Heartbeat CPU 9 instructions: 50000008 cycles: 29759777 heartbeat IPC: 1.759 cumulative IPC: 1.68 (Simulation time: 03 hr 16 min 27 sec)
*** Reached end of trace: (5, "/home/harshraj/COALESCE-Hashed-Perceptron-Cache-Replacement-Policy/simulator/traces/canneal_big1.champsimtrace")
Warmup finished CPU 5 instructions: 50000000 cycles: 29818473 cumulative IPC: 1.677 (Simulation time: 03 hr 16 min 53 sec)
Warmup complete CPU 9 instructions: 50098079 cycles: 29818473 cumulative IPC: 1.68 (Simulation time: 03 hr 16 min 53 sec)
Warmup complete CPU 8 instructions: 77477259 cycles: 29818473 cumulative IPC: 2.598 (Simulation time: 03 hr 16 min 53 sec)
Warmup complete CPU 7 instructions: 119260129 cycles: 29818473 cumulative IPC: 4 (Simulation time: 03 hr 16 min 53 sec)
Warmup complete CPU 6 instructions: 119259461 cycles: 29818473 cumulative IPC: 4 (Simulation time: 03 hr 16 min 53 sec)
Warmup complete CPU 5 instructions: 50000000 cycles: 29818473 cumulative IPC: 1.677 (Simulation time: 03 hr 16 min 53 sec)
Warmup complete CPU 4 instructions: 77269139 cycles: 29818473 cumulative IPC: 2.591 (Simulation time: 03 hr 16 min 53 sec)
Warmup complete CPU 3 instructions: 119260081 cycles: 29818473 cumulative IPC: 4 (Simulation time: 03 hr 16 min 53 sec)
Warmup complete CPU 2 instructions: 119260245 cycles: 29818473 cumulative IPC: 4 (Simulation time: 03 hr 16 min 53 sec)
Warmup complete CPU 15 instructions: 119260049 cycles: 29818473 cumulative IPC: 4 (Simulation time: 03 hr 16 min 53 sec)
Warmup complete CPU 14 instructions: 119259445 cycles: 29818473 cumulative IPC: 4 (Simulation time: 03 hr 16 min 53 sec)
Warmup complete CPU 13 instructions: 50098142 cycles: 29818473 cumulative IPC: 1.68 (Simulation time: 03 hr 16 min 53 sec)
Warmup complete CPU 12 instructions: 77463499 cycles: 29818473 cumulative IPC: 2.598 (Simulation time: 03 hr 16 min 53 sec)
Warmup complete CPU 11 instructions: 119260841 cycles: 29818473 cumulative IPC: 4 (Simulation time: 03 hr 16 min 53 sec)
Warmup complete CPU 10 instructions: 119259469 cycles: 29818473 cumulative IPC: 4 (Simulation time: 03 hr 16 min 53 sec)
Warmup complete CPU 1 instructions: 50098143 cycles: 29818473 cumulative IPC: 1.68 (Simulation time: 03 hr 16 min 53 sec)
Warmup complete CPU 0 instructions: 77464574 cycles: 29818473 cumulative IPC: 2.598 (Simulation time: 03 hr 16 min 53 sec)
Heartbeat CPU 5 instructions: 50000008 cycles: 29818702 heartbeat IPC: 1.755 cumulative IPC: 0.03493 (Simulation time: 03 hr 16 min 53 sec)
*** Reached end of trace: (11, "/home/harshraj/COALESCE-Hashed-Perceptron-Cache-Replacement-Policy/simulator/traces/canneal_big3.champsimtrace")
Heartbeat CPU 11 instructions: 120000001 cycles: 30003263 heartbeat IPC: 4 cumulative IPC: 4 (Simulation time: 03 hr 18 min 15 sec)
*** Reached end of trace: (2, "/home/harshraj/COALESCE-Hashed-Perceptron-Cache-Replacement-Policy/simulator/traces/canneal_big2.champsimtrace")
*** Reached end of trace: (7, "/home/harshraj/COALESCE-Hashed-Perceptron-Cache-Replacement-Policy/simulator/traces/canneal_big3.champsimtrace")
*** Reached end of trace: (3, "/home/harshraj/COALESCE-Hashed-Perceptron-Cache-Replacement-Policy/simulator/traces/canneal_big3.champsimtrace")
*** Reached end of trace: (15, "/home/harshraj/COALESCE-Hashed-Perceptron-Cache-Replacement-Policy/simulator/traces/canneal_big3.champsimtrace")
Heartbeat CPU 2 instructions: 120000001 cycles: 30003412 heartbeat IPC: 4 cumulative IPC: 4 (Simulation time: 03 hr 18 min 15 sec)
Heartbeat CPU 7 instructions: 120000001 cycles: 30003441 heartbeat IPC: 4 cumulative IPC: 4 (Simulation time: 03 hr 18 min 15 sec)
Heartbeat CPU 3 instructions: 120000001 cycles: 30003453 heartbeat IPC: 4 cumulative IPC: 4 (Simulation time: 03 hr 18 min 15 sec)
Heartbeat CPU 15 instructions: 120000001 cycles: 30003461 heartbeat IPC: 4 cumulative IPC: 4 (Simulation time: 03 hr 18 min 15 sec)
*** Reached end of trace: (10, "/home/harshraj/COALESCE-Hashed-Perceptron-Cache-Replacement-Policy/simulator/traces/canneal_big2.champsimtrace")
*** Reached end of trace: (6, "/home/harshraj/COALESCE-Hashed-Perceptron-Cache-Replacement-Policy/simulator/traces/canneal_big2.champsimtrace")
*** Reached end of trace: (14, "/home/harshraj/COALESCE-Hashed-Perceptron-Cache-Replacement-Policy/simulator/traces/canneal_big2.champsimtrace")
Heartbeat CPU 10 instructions: 120000001 cycles: 30003606 heartbeat IPC: 4 cumulative IPC: 4 (Simulation time: 03 hr 18 min 15 sec)
Heartbeat CPU 6 instructions: 120000001 cycles: 30003608 heartbeat IPC: 4 cumulative IPC: 4 (Simulation time: 03 hr 18 min 15 sec)
Heartbeat CPU 14 instructions: 120000001 cycles: 30003612 heartbeat IPC: 4 cumulative IPC: 4 (Simulation time: 03 hr 18 min 15 sec)
*** Reached end of trace: (12, "/home/harshraj/COALESCE-Hashed-Perceptron-Cache-Replacement-Policy/simulator/traces/canneal_big0.champsimtrace")
*** Reached end of trace: (0, "/home/harshraj/COALESCE-Hashed-Perceptron-Cache-Replacement-Policy/simulator/traces/canneal_big0.champsimtrace")
*** Reached end of trace: (8, "/home/harshraj/COALESCE-Hashed-Perceptron-Cache-Replacement-Policy/simulator/traces/canneal_big0.champsimtrace")
Heartbeat CPU 0 instructions: 80000024 cycles: 30829300 heartbeat IPC: 2.629 cumulative IPC: 2.508 (Simulation time: 03 hr 23 min 59 sec)
Heartbeat CPU 12 instructions: 80000024 cycles: 30829300 heartbeat IPC: 2.629 cumulative IPC: 2.509 (Simulation time: 03 hr 23 min 59 sec)
Heartbeat CPU 8 instructions: 80000024 cycles: 30829301 heartbeat IPC: 2.624 cumulative IPC: 2.496 (Simulation time: 03 hr 23 min 59 sec)
*** Reached end of trace: (4, "/home/harshraj/COALESCE-Hashed-Perceptron-Cache-Replacement-Policy/simulator/traces/canneal_big0.champsimtrace")
Heartbeat CPU 4 instructions: 80000024 cycles: 30849801 heartbeat IPC: 2.665 cumulative IPC: 2.648 (Simulation time: 03 hr 24 min 08 sec)
*** Reached end of trace: (11, "/home/harshraj/COALESCE-Hashed-Perceptron-Cache-Replacement-Policy/simulator/traces/canneal_big3.champsimtrace")
*** Reached end of trace: (2, "/home/harshraj/COALESCE-Hashed-Perceptron-Cache-Replacement-Policy/simulator/traces/canneal_big2.champsimtrace")
*** Reached end of trace: (7, "/home/harshraj/COALESCE-Hashed-Perceptron-Cache-Replacement-Policy/simulator/traces/canneal_big3.champsimtrace")
*** Reached end of trace: (3, "/home/harshraj/COALESCE-Hashed-Perceptron-Cache-Replacement-Policy/simulator/traces/canneal_big3.champsimtrace")
*** Reached end of trace: (15, "/home/harshraj/COALESCE-Hashed-Perceptron-Cache-Replacement-Policy/simulator/traces/canneal_big3.champsimtrace")
*** Reached end of trace: (10, "/home/harshraj/COALESCE-Hashed-Perceptron-Cache-Replacement-Policy/simulator/traces/canneal_big2.champsimtrace")
*** Reached end of trace: (6, "/home/harshraj/COALESCE-Hashed-Perceptron-Cache-Replacement-Policy/simulator/traces/canneal_big2.champsimtrace")
*** Reached end of trace: (14, "/home/harshraj/COALESCE-Hashed-Perceptron-Cache-Replacement-Policy/simulator/traces/canneal_big2.champsimtrace")
*** Reached end of trace: (11, "/home/harshraj/COALESCE-Hashed-Perceptron-Cache-Replacement-Policy/simulator/traces/canneal_big3.champsimtrace")
Heartbeat CPU 11 instructions: 130000001 cycles: 32503263 heartbeat IPC: 4 cumulative IPC: 4 (Simulation time: 03 hr 34 min 25 sec)
*** Reached end of trace: (2, "/home/harshraj/COALESCE-Hashed-Perceptron-Cache-Replacement-Policy/simulator/traces/canneal_big2.champsimtrace")
*** Reached end of trace: (7, "/home/harshraj/COALESCE-Hashed-Perceptron-Cache-Replacement-Policy/simulator/traces/canneal_big3.champsimtrace")
*** Reached end of trace: (3, "/home/harshraj/COALESCE-Hashed-Perceptron-Cache-Replacement-Policy/simulator/traces/canneal_big3.champsimtrace")
*** Reached end of trace: (15, "/home/harshraj/COALESCE-Hashed-Perceptron-Cache-Replacement-Policy/simulator/traces/canneal_big3.champsimtrace")
Heartbeat CPU 2 instructions: 130000001 cycles: 32503412 heartbeat IPC: 4 cumulative IPC: 4 (Simulation time: 03 hr 34 min 25 sec)
Heartbeat CPU 7 instructions: 130000001 cycles: 32503441 heartbeat IPC: 4 cumulative IPC: 4 (Simulation time: 03 hr 34 min 25 sec)
Heartbeat CPU 3 instructions: 130000001 cycles: 32503453 heartbeat IPC: 4 cumulative IPC: 4 (Simulation time: 03 hr 34 min 25 sec)
Heartbeat CPU 15 instructions: 130000001 cycles: 32503461 heartbeat IPC: 4 cumulative IPC: 4 (Simulation time: 03 hr 34 min 25 sec)
*** Reached end of trace: (10, "/home/harshraj/COALESCE-Hashed-Perceptron-Cache-Replacement-Policy/simulator/traces/canneal_big2.champsimtrace")
*** Reached end of trace: (6, "/home/harshraj/COALESCE-Hashed-Perceptron-Cache-Replacement-Policy/simulator/traces/canneal_big2.champsimtrace")
*** Reached end of trace: (14, "/home/harshraj/COALESCE-Hashed-Perceptron-Cache-Replacement-Policy/simulator/traces/canneal_big2.champsimtrace")
Heartbeat CPU 10 instructions: 130000001 cycles: 32503606 heartbeat IPC: 4 cumulative IPC: 4 (Simulation time: 03 hr 34 min 25 sec)
Heartbeat CPU 6 instructions: 130000001 cycles: 32503608 heartbeat IPC: 4 cumulative IPC: 4 (Simulation time: 03 hr 34 min 25 sec)
Heartbeat CPU 14 instructions: 130000001 cycles: 32503612 heartbeat IPC: 4 cumulative IPC: 4 (Simulation time: 03 hr 34 min 25 sec)
*** Reached end of trace: (12, "/home/harshraj/COALESCE-Hashed-Perceptron-Cache-Replacement-Policy/simulator/traces/canneal_big0.champsimtrace")
*** Reached end of trace: (0, "/home/harshraj/COALESCE-Hashed-Perceptron-Cache-Replacement-Policy/simulator/traces/canneal_big0.champsimtrace")
*** Reached end of trace: (8, "/home/harshraj/COALESCE-Hashed-Perceptron-Cache-Replacement-Policy/simulator/traces/canneal_big0.champsimtrace")
*** Reached end of trace: (4, "/home/harshraj/COALESCE-Hashed-Perceptron-Cache-Replacement-Policy/simulator/traces/canneal_big0.champsimtrace")
*** Reached end of trace: (11, "/home/harshraj/COALESCE-Hashed-Perceptron-Cache-Replacement-Policy/simulator/traces/canneal_big3.champsimtrace")
*** Reached end of trace: (2, "/home/harshraj/COALESCE-Hashed-Perceptron-Cache-Replacement-Policy/simulator/traces/canneal_big2.champsimtrace")
*** Reached end of trace: (7, "/home/harshraj/COALESCE-Hashed-Perceptron-Cache-Replacement-Policy/simulator/traces/canneal_big3.champsimtrace")
*** Reached end of trace: (3, "/home/harshraj/COALESCE-Hashed-Perceptron-Cache-Replacement-Policy/simulator/traces/canneal_big3.champsimtrace")
*** Reached end of trace: (15, "/home/harshraj/COALESCE-Hashed-Perceptron-Cache-Replacement-Policy/simulator/traces/canneal_big3.champsimtrace")
*** Reached end of trace: (10, "/home/harshraj/COALESCE-Hashed-Perceptron-Cache-Replacement-Policy/simulator/traces/canneal_big2.champsimtrace")
*** Reached end of trace: (6, "/home/harshraj/COALESCE-Hashed-Perceptron-Cache-Replacement-Policy/simulator/traces/canneal_big2.champsimtrace")
*** Reached end of trace: (14, "/home/harshraj/COALESCE-Hashed-Perceptron-Cache-Replacement-Policy/simulator/traces/canneal_big2.champsimtrace")
*** Reached end of trace: (11, "/home/harshraj/COALESCE-Hashed-Perceptron-Cache-Replacement-Policy/simulator/traces/canneal_big3.champsimtrace")
Heartbeat CPU 11 instructions: 140000001 cycles: 35003263 heartbeat IPC: 4 cumulative IPC: 4 (Simulation time: 03 hr 50 min 52 sec)
*** Reached end of trace: (2, "/home/harshraj/COALESCE-Hashed-Perceptron-Cache-Replacement-Policy/simulator/traces/canneal_big2.champsimtrace")
*** Reached end of trace: (7, "/home/harshraj/COALESCE-Hashed-Perceptron-Cache-Replacement-Policy/simulator/traces/canneal_big3.champsimtrace")
*** Reached end of trace: (3, "/home/harshraj/COALESCE-Hashed-Perceptron-Cache-Replacement-Policy/simulator/traces/canneal_big3.champsimtrace")
*** Reached end of trace: (15, "/home/harshraj/COALESCE-Hashed-Perceptron-Cache-Replacement-Policy/simulator/traces/canneal_big3.champsimtrace")
Heartbeat CPU 2 instructions: 140000001 cycles: 35003412 heartbeat IPC: 4 cumulative IPC: 4 (Simulation time: 03 hr 50 min 52 sec)
Heartbeat CPU 7 instructions: 140000001 cycles: 35003441 heartbeat IPC: 4 cumulative IPC: 4 (Simulation time: 03 hr 50 min 52 sec)
Heartbeat CPU 3 instructions: 140000001 cycles: 35003453 heartbeat IPC: 4 cumulative IPC: 4 (Simulation time: 03 hr 50 min 52 sec)
Heartbeat CPU 15 instructions: 140000001 cycles: 35003461 heartbeat IPC: 4 cumulative IPC: 4 (Simulation time: 03 hr 50 min 52 sec)
*** Reached end of trace: (10, "/home/harshraj/COALESCE-Hashed-Perceptron-Cache-Replacement-Policy/simulator/traces/canneal_big2.champsimtrace")
*** Reached end of trace: (6, "/home/harshraj/COALESCE-Hashed-Perceptron-Cache-Replacement-Policy/simulator/traces/canneal_big2.champsimtrace")
*** Reached end of trace: (14, "/home/harshraj/COALESCE-Hashed-Perceptron-Cache-Replacement-Policy/simulator/traces/canneal_big2.champsimtrace")
Heartbeat CPU 10 instructions: 140000001 cycles: 35003606 heartbeat IPC: 4 cumulative IPC: 4 (Simulation time: 03 hr 50 min 52 sec)
Heartbeat CPU 6 instructions: 140000001 cycles: 35003608 heartbeat IPC: 4 cumulative IPC: 4 (Simulation time: 03 hr 50 min 52 sec)
Heartbeat CPU 14 instructions: 140000001 cycles: 35003612 heartbeat IPC: 4 cumulative IPC: 4 (Simulation time: 03 hr 50 min 52 sec)
*** Reached end of trace: (8, "/home/harshraj/COALESCE-Hashed-Perceptron-Cache-Replacement-Policy/simulator/traces/canneal_big0.champsimtrace")
*** Reached end of trace: (4, "/home/harshraj/COALESCE-Hashed-Perceptron-Cache-Replacement-Policy/simulator/traces/canneal_big0.champsimtrace")
*** Reached end of trace: (12, "/home/harshraj/COALESCE-Hashed-Perceptron-Cache-Replacement-Policy/simulator/traces/canneal_big0.champsimtrace")
*** Reached end of trace: (0, "/home/harshraj/COALESCE-Hashed-Perceptron-Cache-Replacement-Policy/simulator/traces/canneal_big0.champsimtrace")
Heartbeat CPU 0 instructions: 90000027 cycles: 35777088 heartbeat IPC: 2.021 cumulative IPC: 2.104 (Simulation time: 03 hr 54 min 54 sec)
Heartbeat CPU 12 instructions: 90000027 cycles: 35777088 heartbeat IPC: 2.021 cumulative IPC: 2.104 (Simulation time: 03 hr 54 min 54 sec)
Heartbeat CPU 8 instructions: 90000027 cycles: 35777089 heartbeat IPC: 2.021 cumulative IPC: 2.102 (Simulation time: 03 hr 54 min 54 sec)
Heartbeat CPU 4 instructions: 90000027 cycles: 35777089 heartbeat IPC: 2.03 cumulative IPC: 2.137 (Simulation time: 03 hr 54 min 54 sec)
*** Reached end of trace: (11, "/home/harshraj/COALESCE-Hashed-Perceptron-Cache-Replacement-Policy/simulator/traces/canneal_big3.champsimtrace")
*** Reached end of trace: (2, "/home/harshraj/COALESCE-Hashed-Perceptron-Cache-Replacement-Policy/simulator/traces/canneal_big2.champsimtrace")
*** Reached end of trace: (7, "/home/harshraj/COALESCE-Hashed-Perceptron-Cache-Replacement-Policy/simulator/traces/canneal_big3.champsimtrace")
*** Reached end of trace: (3, "/home/harshraj/COALESCE-Hashed-Perceptron-Cache-Replacement-Policy/simulator/traces/canneal_big3.champsimtrace")
*** Reached end of trace: (15, "/home/harshraj/COALESCE-Hashed-Perceptron-Cache-Replacement-Policy/simulator/traces/canneal_big3.champsimtrace")
*** Reached end of trace: (10, "/home/harshraj/COALESCE-Hashed-Perceptron-Cache-Replacement-Policy/simulator/traces/canneal_big2.champsimtrace")
*** Reached end of trace: (6, "/home/harshraj/COALESCE-Hashed-Perceptron-Cache-Replacement-Policy/simulator/traces/canneal_big2.champsimtrace")
*** Reached end of trace: (14, "/home/harshraj/COALESCE-Hashed-Perceptron-Cache-Replacement-Policy/simulator/traces/canneal_big2.champsimtrace")
*** Reached end of trace: (11, "/home/harshraj/COALESCE-Hashed-Perceptron-Cache-Replacement-Policy/simulator/traces/canneal_big3.champsimtrace")
Heartbeat CPU 11 instructions: 150000001 cycles: 37503263 heartbeat IPC: 4 cumulative IPC: 4 (Simulation time: 04 hr 03 min 52 sec)
*** Reached end of trace: (2, "/home/harshraj/COALESCE-Hashed-Perceptron-Cache-Replacement-Policy/simulator/traces/canneal_big2.champsimtrace")
*** Reached end of trace: (7, "/home/harshraj/COALESCE-Hashed-Perceptron-Cache-Replacement-Policy/simulator/traces/canneal_big3.champsimtrace")
*** Reached end of trace: (3, "/home/harshraj/COALESCE-Hashed-Perceptron-Cache-Replacement-Policy/simulator/traces/canneal_big3.champsimtrace")
*** Reached end of trace: (15, "/home/harshraj/COALESCE-Hashed-Perceptron-Cache-Replacement-Policy/simulator/traces/canneal_big3.champsimtrace")
Heartbeat CPU 2 instructions: 150000001 cycles: 37503412 heartbeat IPC: 4 cumulative IPC: 4 (Simulation time: 04 hr 03 min 53 sec)
Heartbeat CPU 7 instructions: 150000001 cycles: 37503441 heartbeat IPC: 4 cumulative IPC: 4 (Simulation time: 04 hr 03 min 53 sec)
Heartbeat CPU 3 instructions: 150000001 cycles: 37503453 heartbeat IPC: 4 cumulative IPC: 4 (Simulation time: 04 hr 03 min 53 sec)
Heartbeat CPU 15 instructions: 150000001 cycles: 37503461 heartbeat IPC: 4 cumulative IPC: 4 (Simulation time: 04 hr 03 min 53 sec)
*** Reached end of trace: (10, "/home/harshraj/COALESCE-Hashed-Perceptron-Cache-Replacement-Policy/simulator/traces/canneal_big2.champsimtrace")
*** Reached end of trace: (6, "/home/harshraj/COALESCE-Hashed-Perceptron-Cache-Replacement-Policy/simulator/traces/canneal_big2.champsimtrace")
*** Reached end of trace: (14, "/home/harshraj/COALESCE-Hashed-Perceptron-Cache-Replacement-Policy/simulator/traces/canneal_big2.champsimtrace")
Heartbeat CPU 10 instructions: 150000001 cycles: 37503606 heartbeat IPC: 4 cumulative IPC: 4 (Simulation time: 04 hr 03 min 53 sec)
Heartbeat CPU 6 instructions: 150000001 cycles: 37503608 heartbeat IPC: 4 cumulative IPC: 4 (Simulation time: 04 hr 03 min 53 sec)
Heartbeat CPU 14 instructions: 150000001 cycles: 37503612 heartbeat IPC: 4 cumulative IPC: 4 (Simulation time: 04 hr 03 min 53 sec)
*** Reached end of trace: (12, "/home/harshraj/COALESCE-Hashed-Perceptron-Cache-Replacement-Policy/simulator/traces/canneal_big0.champsimtrace")
*** Reached end of trace: (0, "/home/harshraj/COALESCE-Hashed-Perceptron-Cache-Replacement-Policy/simulator/traces/canneal_big0.champsimtrace")
*** Reached end of trace: (8, "/home/harshraj/COALESCE-Hashed-Perceptron-Cache-Replacement-Policy/simulator/traces/canneal_big0.champsimtrace")
*** Reached end of trace: (4, "/home/harshraj/COALESCE-Hashed-Perceptron-Cache-Replacement-Policy/simulator/traces/canneal_big0.champsimtrace")
*** Reached end of trace: (11, "/home/harshraj/COALESCE-Hashed-Perceptron-Cache-Replacement-Policy/simulator/traces/canneal_big3.champsimtrace")
*** Reached end of trace: (2, "/home/harshraj/COALESCE-Hashed-Perceptron-Cache-Replacement-Policy/simulator/traces/canneal_big2.champsimtrace")
*** Reached end of trace: (7, "/home/harshraj/COALESCE-Hashed-Perceptron-Cache-Replacement-Policy/simulator/traces/canneal_big3.champsimtrace")
*** Reached end of trace: (3, "/home/harshraj/COALESCE-Hashed-Perceptron-Cache-Replacement-Policy/simulator/traces/canneal_big3.champsimtrace")
[...]
cpu12->cpu12_L2C TRANSLATION  ACCESS:          0 HIT:          0 MISS:          0 MSHR_MERGE:          0
cpu12->cpu12_L2C PREFETCH REQUESTED:          0 ISSUED:          0 USEFUL:          0 USELESS:          0
cpu12->cpu12_L2C AVERAGE MISS LATENCY: 305.3 cycles
cpu12_L2C COHERENCE INVALIDATIONS:          0
cpu12_L2C COHERENCE WRITE-HIT OTHER-SHARER EVENTS:          0
cpu12->cpu12_L1I TOTAL        ACCESS:  137642304 HIT:  137339364 MISS:     302940 MSHR_MERGE:      81287
cpu12->cpu12_L1I LOAD         ACCESS:  137642304 HIT:  137339364 MISS:     302940 MSHR_MERGE:      81287
cpu12->cpu12_L1I RFO          ACCESS:          0 HIT:          0 MISS:          0 MSHR_MERGE:          0
cpu12->cpu12_L1I PREFETCH     ACCESS:          0 HIT:          0 MISS:          0 MSHR_MERGE:          0
cpu12->cpu12_L1I WRITE        ACCESS:          0 HIT:          0 MISS:          0 MSHR_MERGE:          0
cpu12->cpu12_L1I TRANSLATION  ACCESS:          0 HIT:          0 MISS:          0 MSHR_MERGE:          0
cpu12->cpu12_L1I PREFETCH REQUESTED:          0 ISSUED:          0 USEFUL:          0 USELESS:          0
cpu12->cpu12_L1I AVERAGE MISS LATENCY: 347.9 cycles
cpu12_L1I COHERENCE INVALIDATIONS:          0
cpu12_L1I COHERENCE WRITE-HIT OTHER-SHARER EVENTS:          0
cpu12->cpu12_L1D TOTAL        ACCESS:  162789880 HIT:  131834060 MISS:   30955820 MSHR_MERGE:   25523715
cpu12->cpu12_L1D LOAD         ACCESS:   16821213 HIT:   14126992 MISS:    2694221 MSHR_MERGE:    1366839
cpu12->cpu12_L1D RFO          ACCESS:          0 HIT:          0 MISS:          0 MSHR_MERGE:          0
cpu12->cpu12_L1D PREFETCH     ACCESS:          0 HIT:          0 MISS:          0 MSHR_MERGE:          0
cpu12->cpu12_L1D WRITE        ACCESS:  145968667 HIT:  117707068 MISS:   28261599 MSHR_MERGE:   24156876
cpu12->cpu12_L1D TRANSLATION  ACCESS:          0 HIT:          0 MISS:          0 MSHR_MERGE:          0
cpu12->cpu12_L1D PREFETCH REQUESTED:          0 ISSUED:          0 USEFUL:          0 USELESS:          0
cpu12->cpu12_L1D AVERAGE MISS LATENCY: 278 cycles
cpu12_L1D COHERENCE INVALIDATIONS:          0
cpu12_L1D COHERENCE WRITE-HIT OTHER-SHARER EVENTS:          0
cpu12->cpu12_ITLB TOTAL        ACCESS:  114599733 HIT:  114553334 MISS:      46399 MSHR_MERGE:      18471
cpu12->cpu12_ITLB LOAD         ACCESS:  114599733 HIT:  114553334 MISS:      46399 MSHR_MERGE:      18471
cpu12->cpu12_ITLB RFO          ACCESS:          0 HIT:          0 MISS:          0 MSHR_MERGE:          0
cpu12->cpu12_ITLB PREFETCH     ACCESS:          0 HIT:          0 MISS:          0 MSHR_MERGE:          0
cpu12->cpu12_ITLB WRITE        ACCESS:          0 HIT:          0 MISS:          0 MSHR_MERGE:          0
cpu12->cpu12_ITLB TRANSLATION  ACCESS:          0 HIT:          0 MISS:          0 MSHR_MERGE:          0
cpu12->cpu12_ITLB PREFETCH REQUESTED:          0 ISSUED:          0 USEFUL:          0 USELESS:          0
cpu12->cpu12_ITLB AVERAGE MISS LATENCY: 4.004 cycles
cpu12_ITLB COHERENCE INVALIDATIONS:          0
cpu12_ITLB COHERENCE WRITE-HIT OTHER-SHARER EVENTS:          0
cpu12->cpu12_DTLB TOTAL        ACCESS:  135677843 HIT:  135317575 MISS:     360268 MSHR_MERGE:      81338
cpu12->cpu12_DTLB LOAD         ACCESS:  135677843 HIT:  135317575 MISS:     360268 MSHR_MERGE:      81338
cpu12->cpu12_DTLB RFO          ACCESS:          0 HIT:          0 MISS:          0 MSHR_MERGE:          0
cpu12->cpu12_DTLB PREFETCH     ACCESS:          0 HIT:          0 MISS:          0 MSHR_MERGE:          0
cpu12->cpu12_DTLB WRITE        ACCESS:          0 HIT:          0 MISS:          0 MSHR_MERGE:          0
cpu12->cpu12_DTLB TRANSLATION  ACCESS:          0 HIT:          0 MISS:          0 MSHR_MERGE:          0
cpu12->cpu12_DTLB PREFETCH REQUESTED:          0 ISSUED:          0 USEFUL:          0 USELESS:          0
cpu12->cpu12_DTLB AVERAGE MISS LATENCY: 4 cycles
cpu12_DTLB COHERENCE INVALIDATIONS:          0
cpu12_DTLB COHERENCE WRITE-HIT OTHER-SHARER EVENTS:          0
cpu11_STLB COHERENCE INVALIDATIONS:          0
cpu11_STLB COHERENCE WRITE-HIT OTHER-SHARER EVENTS:          0
cpu11_L2C COHERENCE INVALIDATIONS:          0
cpu11_L2C COHERENCE WRITE-HIT OTHER-SHARER EVENTS:          0
cpu11->cpu11_L1I TOTAL        ACCESS:  231988846 HIT:  231988846 MISS:          0 MSHR_MERGE:          0
cpu11->cpu11_L1I LOAD         ACCESS:  231988846 HIT:  231988846 MISS:          0 MSHR_MERGE:          0
cpu11->cpu11_L1I RFO          ACCESS:          0 HIT:          0 MISS:          0 MSHR_MERGE:          0
cpu11->cpu11_L1I PREFETCH     ACCESS:          0 HIT:          0 MISS:          0 MSHR_MERGE:          0
cpu11->cpu11_L1I WRITE        ACCESS:          0 HIT:          0 MISS:          0 MSHR_MERGE:          0
cpu11->cpu11_L1I TRANSLATION  ACCESS:          0 HIT:          0 MISS:          0 MSHR_MERGE:          0
cpu11->cpu11_L1I PREFETCH REQUESTED:          0 ISSUED:          0 USEFUL:          0 USELESS:          0
cpu11->cpu11_L1I AVERAGE MISS LATENCY: - cycles
cpu11_L1I COHERENCE INVALIDATIONS:          0
cpu11_L1I COHERENCE WRITE-HIT OTHER-SHARER EVENTS:          0
cpu11_L1D COHERENCE INVALIDATIONS:          0
cpu11_L1D COHERENCE WRITE-HIT OTHER-SHARER EVENTS:          0
cpu11->cpu11_ITLB TOTAL        ACCESS:  193625778 HIT:  193625778 MISS:          0 MSHR_MERGE:          0
cpu11->cpu11_ITLB LOAD         ACCESS:  193625778 HIT:  193625778 MISS:          0 MSHR_MERGE:          0
cpu11->cpu11_ITLB RFO          ACCESS:          0 HIT:          0 MISS:          0 MSHR_MERGE:          0
cpu11->cpu11_ITLB PREFETCH     ACCESS:          0 HIT:          0 MISS:          0 MSHR_MERGE:          0
cpu11->cpu11_ITLB WRITE        ACCESS:          0 HIT:          0 MISS:          0 MSHR_MERGE:          0
cpu11->cpu11_ITLB TRANSLATION  ACCESS:          0 HIT:          0 MISS:          0 MSHR_MERGE:          0
cpu11->cpu11_ITLB PREFETCH REQUESTED:          0 ISSUED:          0 USEFUL:          0 USELESS:          0
cpu11->cpu11_ITLB AVERAGE MISS LATENCY: - cycles
cpu11_ITLB COHERENCE INVALIDATIONS:          0
cpu11_ITLB COHERENCE WRITE-HIT OTHER-SHARER EVENTS:          0
cpu11_DTLB COHERENCE INVALIDATIONS:          0
cpu11_DTLB COHERENCE WRITE-HIT OTHER-SHARER EVENTS:          0
cpu10_STLB COHERENCE INVALIDATIONS:          0
cpu10_STLB COHERENCE WRITE-HIT OTHER-SHARER EVENTS:          0
cpu10_L2C COHERENCE INVALIDATIONS:          0
cpu10_L2C COHERENCE WRITE-HIT OTHER-SHARER EVENTS:          0
cpu10->cpu10_L1I TOTAL        ACCESS:  232175752 HIT:  232175752 MISS:          0 MSHR_MERGE:          0
cpu10->cpu10_L1I LOAD         ACCESS:  232175752 HIT:  232175752 MISS:          0 MSHR_MERGE:          0
cpu10->cpu10_L1I RFO          ACCESS:          0 HIT:          0 MISS:          0 MSHR_MERGE:          0
cpu10->cpu10_L1I PREFETCH     ACCESS:          0 HIT:          0 MISS:          0 MSHR_MERGE:          0
cpu10->cpu10_L1I WRITE        ACCESS:          0 HIT:          0 MISS:          0 MSHR_MERGE:          0
cpu10->cpu10_L1I TRANSLATION  ACCESS:          0 HIT:          0 MISS:          0 MSHR_MERGE:          0
cpu10->cpu10_L1I PREFETCH REQUESTED:          0 ISSUED:          0 USEFUL:          0 USELESS:          0
cpu10->cpu10_L1I AVERAGE MISS LATENCY: - cycles
cpu10_L1I COHERENCE INVALIDATIONS:          0
cpu10_L1I COHERENCE WRITE-HIT OTHER-SHARER EVENTS:          0
cpu10_L1D COHERENCE INVALIDATIONS:          0
cpu10_L1D COHERENCE WRITE-HIT OTHER-SHARER EVENTS:          0
cpu10->cpu10_ITLB TOTAL        ACCESS:  193724443 HIT:  193724443 MISS:          0 MSHR_MERGE:          0
cpu10->cpu10_ITLB LOAD         ACCESS:  193724443 HIT:  193724443 MISS:          0 MSHR_MERGE:          0
cpu10->cpu10_ITLB RFO          ACCESS:          0 HIT:          0 MISS:          0 MSHR_MERGE:          0
cpu10->cpu10_ITLB PREFETCH     ACCESS:          0 HIT:          0 MISS:          0 MSHR_MERGE:          0
cpu10->cpu10_ITLB WRITE        ACCESS:          0 HIT:          0 MISS:          0 MSHR_MERGE:          0
cpu10->cpu10_ITLB TRANSLATION  ACCESS:          0 HIT:          0 MISS:          0 MSHR_MERGE:          0
cpu10->cpu10_ITLB PREFETCH REQUESTED:          0 ISSUED:          0 USEFUL:          0 USELESS:          0
cpu10->cpu10_ITLB AVERAGE MISS LATENCY: - cycles
cpu10_ITLB COHERENCE INVALIDATIONS:          0
cpu10_ITLB COHERENCE WRITE-HIT OTHER-SHARER EVENTS:          0
cpu10_DTLB COHERENCE INVALIDATIONS:          0
cpu10_DTLB COHERENCE WRITE-HIT OTHER-SHARER EVENTS:          0
cpu0->cpu0_STLB TOTAL        ACCESS:     306858 HIT:     306858 MISS:          0 MSHR_MERGE:          0
cpu0->cpu0_STLB LOAD         ACCESS:     306858 HIT:     306858 MISS:          0 MSHR_MERGE:          0
cpu0->cpu0_STLB RFO          ACCESS:          0 HIT:          0 MISS:          0 MSHR_MERGE:          0
cpu0->cpu0_STLB PREFETCH     ACCESS:          0 HIT:          0 MISS:          0 MSHR_MERGE:          0
cpu0->cpu0_STLB WRITE        ACCESS:          0 HIT:          0 MISS:          0 MSHR_MERGE:          0
cpu0->cpu0_STLB TRANSLATION  ACCESS:          0 HIT:          0 MISS:          0 MSHR_MERGE:          0
cpu0->cpu0_STLB PREFETCH REQUESTED:          0 ISSUED:          0 USEFUL:          0 USELESS:          0
cpu0->cpu0_STLB AVERAGE MISS LATENCY: - cycles
cpu0_STLB COHERENCE INVALIDATIONS:          0
cpu0_STLB COHERENCE WRITE-HIT OTHER-SHARER EVENTS:          0
cpu0->cpu0_L2C TOTAL        ACCESS:    9813336 HIT:    4760729 MISS:    5052607 MSHR_MERGE:          0
cpu0->cpu0_L2C LOAD         ACCESS:    1549035 HIT:     523362 MISS:    1025673 MSHR_MERGE:          0
cpu0->cpu0_L2C RFO          ACCESS:    4101557 HIT:      74623 MISS:    4026934 MSHR_MERGE:          0
cpu0->cpu0_L2C PREFETCH     ACCESS:          0 HIT:          0 MISS:          0 MSHR_MERGE:          0
cpu0->cpu0_L2C WRITE        ACCESS:    4162744 HIT:    4162744 MISS:          0 MSHR_MERGE:          0
cpu0->cpu0_L2C TRANSLATION  ACCESS:          0 HIT:          0 MISS:          0 MSHR_MERGE:          0
cpu0->cpu0_L2C PREFETCH REQUESTED:          0 ISSUED:          0 USEFUL:          0 USELESS:          0
cpu0->cpu0_L2C AVERAGE MISS LATENCY: 305.3 cycles
cpu0_L2C COHERENCE INVALIDATIONS:          0
cpu0_L2C COHERENCE WRITE-HIT OTHER-SHARER EVENTS:          0
cpu0->cpu0_L1I TOTAL        ACCESS:  137642019 HIT:  137339051 MISS:     302968 MSHR_MERGE:      81315
cpu0->cpu0_L1I LOAD         ACCESS:  137642019 HIT:  137339051 MISS:     302968 MSHR_MERGE:      81315
cpu0->cpu0_L1I RFO          ACCESS:          0 HIT:          0 MISS:          0 MSHR_MERGE:          0
cpu0->cpu0_L1I PREFETCH     ACCESS:          0 HIT:          0 MISS:          0 MSHR_MERGE:          0
cpu0->cpu0_L1I WRITE        ACCESS:          0 HIT:          0 MISS:          0 MSHR_MERGE:          0
cpu0->cpu0_L1I TRANSLATION  ACCESS:          0 HIT:          0 MISS:          0 MSHR_MERGE:          0
cpu0->cpu0_L1I PREFETCH REQUESTED:          0 ISSUED:          0 USEFUL:          0 USELESS:          0
cpu0->cpu0_L1I AVERAGE MISS LATENCY: 347.9 cycles
cpu0_L1I COHERENCE INVALIDATIONS:          0
cpu0_L1I COHERENCE WRITE-HIT OTHER-SHARER EVENTS:          0
cpu0->cpu0_L1D TOTAL        ACCESS:  162789449 HIT:  131832991 MISS:   30956458 MSHR_MERGE:   25524359
cpu0->cpu0_L1D LOAD         ACCESS:   16821137 HIT:   14126918 MISS:    2694219 MSHR_MERGE:    1366837
cpu0->cpu0_L1D RFO          ACCESS:          0 HIT:          0 MISS:          0 MSHR_MERGE:          0
cpu0->cpu0_L1D PREFETCH     ACCESS:          0 HIT:          0 MISS:          0 MSHR_MERGE:          0
cpu0->cpu0_L1D WRITE        ACCESS:  145968312 HIT:  117706073 MISS:   28262239 MSHR_MERGE:   24157522
cpu0->cpu0_L1D TRANSLATION  ACCESS:          0 HIT:          0 MISS:          0 MSHR_MERGE:          0
cpu0->cpu0_L1D PREFETCH REQUESTED:          0 ISSUED:          0 USEFUL:          0 USELESS:          0
cpu0->cpu0_L1D AVERAGE MISS LATENCY: 278 cycles
cpu0_L1D COHERENCE INVALIDATIONS:          0
cpu0_L1D COHERENCE WRITE-HIT OTHER-SHARER EVENTS:          0
cpu0->cpu0_ITLB TOTAL        ACCESS:  114599380 HIT:  114552988 MISS:      46392 MSHR_MERGE:      18464
cpu0->cpu0_ITLB LOAD         ACCESS:  114599380 HIT:  114552988 MISS:      46392 MSHR_MERGE:      18464
cpu0->cpu0_ITLB RFO          ACCESS:          0 HIT:          0 MISS:          0 MSHR_MERGE:          0
cpu0->cpu0_ITLB PREFETCH     ACCESS:          0 HIT:          0 MISS:          0 MSHR_MERGE:          0
cpu0->cpu0_ITLB WRITE        ACCESS:          0 HIT:          0 MISS:          0 MSHR_MERGE:          0
cpu0->cpu0_ITLB TRANSLATION  ACCESS:          0 HIT:          0 MISS:          0 MSHR_MERGE:          0
cpu0->cpu0_ITLB PREFETCH REQUESTED:          0 ISSUED:          0 USEFUL:          0 USELESS:          0
cpu0->cpu0_ITLB AVERAGE MISS LATENCY: 4.004 cycles
cpu0_ITLB COHERENCE INVALIDATIONS:          0
cpu0_ITLB COHERENCE WRITE-HIT OTHER-SHARER EVENTS:          0
cpu0->cpu0_DTLB TOTAL        ACCESS:  135677474 HIT:  135317176 MISS:     360298 MSHR_MERGE:      81368
cpu0->cpu0_DTLB LOAD         ACCESS:  135677474 HIT:  135317176 MISS:     360298 MSHR_MERGE:      81368
cpu0->cpu0_DTLB RFO          ACCESS:          0 HIT:          0 MISS:          0 MSHR_MERGE:          0
cpu0->cpu0_DTLB PREFETCH     ACCESS:          0 HIT:          0 MISS:          0 MSHR_MERGE:          0
cpu0->cpu0_DTLB WRITE        ACCESS:          0 HIT:          0 MISS:          0 MSHR_MERGE:          0
cpu0->cpu0_DTLB TRANSLATION  ACCESS:          0 HIT:          0 MISS:          0 MSHR_MERGE:          0
cpu0->cpu0_DTLB PREFETCH REQUESTED:          0 ISSUED:          0 USEFUL:          0 USELESS:          0
cpu0->cpu0_DTLB AVERAGE MISS LATENCY: 4 cycles
cpu0_DTLB COHERENCE INVALIDATIONS:          0
cpu0_DTLB COHERENCE WRITE-HIT OTHER-SHARER EVENTS:          0
cpu0->LLC TOTAL        ACCESS:    9125901 HIT:    4196028 MISS:    4929873 MSHR_MERGE:    1617592
cpu0->LLC LOAD         ACCESS:    1025672 HIT:      39450 MISS:     986222 MSHR_MERGE:     482989
cpu0->LLC RFO          ACCESS:    4026934 HIT:     211307 MISS:    3815627 MSHR_MERGE:    1134603
cpu0->LLC PREFETCH     ACCESS:          0 HIT:          0 MISS:          0 MSHR_MERGE:          0
cpu0->LLC WRITE        ACCESS:    4073295 HIT:    3945271 MISS:     128024 MSHR_MERGE:          0
cpu0->LLC TRANSLATION  ACCESS:          0 HIT:          0 MISS:          0 MSHR_MERGE:          0
cpu0->LLC PREFETCH REQUESTED:          0 ISSUED:          0 USEFUL:          0 USELESS:          0
cpu0->LLC AVERAGE MISS LATENCY: 9472 cycles
cpu1->LLC TOTAL        ACCESS:    1940470 HIT:     200772 MISS:    1739698 MSHR_MERGE:    1095249
cpu1->LLC LOAD         ACCESS:    1552974 HIT:     200468 MISS:    1352506 MSHR_MERGE:    1095249
cpu1->LLC RFO          ACCESS:          0 HIT:          0 MISS:          0 MSHR_MERGE:          0
cpu1->LLC PREFETCH     ACCESS:          0 HIT:          0 MISS:          0 MSHR_MERGE:          0
cpu1->LLC WRITE        ACCESS:          0 HIT:          0 MISS:          0 MSHR_MERGE:          0
cpu1->LLC TRANSLATION  ACCESS:     387496 HIT:        304 MISS:     387192 MSHR_MERGE:          0
cpu1->LLC PREFETCH REQUESTED:          0 ISSUED:          0 USEFUL:          0 USELESS:          0
cpu1->LLC AVERAGE MISS LATENCY: 4033 cycles
cpu4->LLC TOTAL        ACCESS:    9128098 HIT:    4285572 MISS:    4842526 MSHR_MERGE:    4317551
cpu4->LLC LOAD         ACCESS:    1025671 HIT:      39708 MISS:     985963 MSHR_MERGE:     823563
cpu4->LLC RFO          ACCESS:    4028185 HIT:     286409 MISS:    3741776 MSHR_MERGE:    3493988
cpu4->LLC PREFETCH     ACCESS:          0 HIT:          0 MISS:          0 MSHR_MERGE:          0
cpu4->LLC WRITE        ACCESS:    4074242 HIT:    3959455 MISS:     114787 MSHR_MERGE:          0
cpu4->LLC TRANSLATION  ACCESS:          0 HIT:          0 MISS:          0 MSHR_MERGE:          0
cpu4->LLC PREFETCH REQUESTED:          0 ISSUED:          0 USEFUL:          0 USELESS:          0
cpu4->LLC AVERAGE MISS LATENCY: 993.8 cycles
cpu5->LLC TOTAL        ACCESS:    1942863 HIT:     220108 MISS:    1722755 MSHR_MERGE:    1135005
cpu5->LLC LOAD         ACCESS:    1554593 HIT:     219704 MISS:    1334889 MSHR_MERGE:    1135005
cpu5->LLC RFO          ACCESS:          0 HIT:          0 MISS:          0 MSHR_MERGE:          0
cpu5->LLC PREFETCH     ACCESS:          0 HIT:          0 MISS:          0 MSHR_MERGE:          0
cpu5->LLC WRITE        ACCESS:          0 HIT:          0 MISS:          0 MSHR_MERGE:          0
cpu5->LLC TRANSLATION  ACCESS:     388270 HIT:        404 MISS:     387866 MSHR_MERGE:          0
cpu5->LLC PREFETCH REQUESTED:          0 ISSUED:          0 USEFUL:          0 USELESS:          0
cpu5->LLC AVERAGE MISS LATENCY: 2280 cycles
cpu8->LLC TOTAL        ACCESS:    9125739 HIT:    4207335 MISS:    4918404 MSHR_MERGE:    4444328
cpu8->LLC LOAD         ACCESS:    1025672 HIT:      39469 MISS:     986203 MSHR_MERGE:     835809
cpu8->LLC RFO          ACCESS:    4026853 HIT:     212411 MISS:    3814442 MSHR_MERGE:    3608519
cpu8->LLC PREFETCH     ACCESS:          0 HIT:          0 MISS:          0 MSHR_MERGE:          0
cpu8->LLC WRITE        ACCESS:    4073214 HIT:    3955455 MISS:     117759 MSHR_MERGE:          0
cpu8->LLC TRANSLATION  ACCESS:          0 HIT:          0 MISS:          0 MSHR_MERGE:          0
cpu8->LLC PREFETCH REQUESTED:          0 ISSUED:          0 USEFUL:          0 USELESS:          0
cpu8->LLC AVERAGE MISS LATENCY: 1160 cycles
cpu9->LLC TOTAL        ACCESS:    1940150 HIT:     201084 MISS:    1739066 MSHR_MERGE:     888100
cpu9->LLC LOAD         ACCESS:    1552227 HIT:     200643 MISS:    1351584 MSHR_MERGE:     888100
cpu9->LLC RFO          ACCESS:          0 HIT:          0 MISS:          0 MSHR_MERGE:          0
cpu9->LLC PREFETCH     ACCESS:          0 HIT:          0 MISS:          0 MSHR_MERGE:          0
cpu9->LLC WRITE        ACCESS:          0 HIT:          0 MISS:          0 MSHR_MERGE:          0
cpu9->LLC TRANSLATION  ACCESS:     387923 HIT:        441 MISS:     387482 MSHR_MERGE:          0
cpu9->LLC PREFETCH REQUESTED:          0 ISSUED:          0 USEFUL:          0 USELESS:          0
cpu9->LLC AVERAGE MISS LATENCY: 3105 cycles
cpu12->LLC TOTAL        ACCESS:    9125913 HIT:    4196269 MISS:    4929644 MSHR_MERGE:    3949231
cpu12->LLC LOAD         ACCESS:    1025672 HIT:      39449 MISS:     986223 MSHR_MERGE:     815868
cpu12->LLC RFO          ACCESS:    4026940 HIT:     211487 MISS:    3815453 MSHR_MERGE:    3133363
cpu12->LLC PREFETCH     ACCESS:          0 HIT:          0 MISS:          0 MSHR_MERGE:          0
cpu12->LLC WRITE        ACCESS:    4073301 HIT:    3945333 MISS:     127968 MSHR_MERGE:          0
cpu12->LLC TRANSLATION  ACCESS:          0 HIT:          0 MISS:          0 MSHR_MERGE:          0
cpu12->LLC PREFETCH REQUESTED:          0 ISSUED:          0 USEFUL:          0 USELESS:          0
cpu12->LLC AVERAGE MISS LATENCY: 5169 cycles
cpu13->LLC TOTAL        ACCESS:    1940332 HIT:     198801 MISS:    1741531 MSHR_MERGE:     804166
cpu13->LLC LOAD         ACCESS:    1552844 HIT:     198315 MISS:    1354529 MSHR_MERGE:     804166
cpu13->LLC RFO          ACCESS:          0 HIT:          0 MISS:          0 MSHR_MERGE:          0
cpu13->LLC PREFETCH     ACCESS:          0 HIT:          0 MISS:          0 MSHR_MERGE:          0
cpu13->LLC WRITE        ACCESS:          0 HIT:          0 MISS:          0 MSHR_MERGE:          0
cpu13->LLC TRANSLATION  ACCESS:     387488 HIT:        486 MISS:     387002 MSHR_MERGE:          0
cpu13->LLC PREFETCH REQUESTED:          0 ISSUED:          0 USEFUL:          0 USELESS:          0
cpu13->LLC AVERAGE MISS LATENCY: 4378 cycles
LLC COHERENCE INVALIDATIONS:   15326728
LLC COHERENCE WRITE-HIT OTHER-SHARER EVENTS:   14593139

DRAM Statistics

Channel 0 RQ ROW_BUFFER_HIT:     338800
  ROW_BUFFER_MISS:    7482638
  AVG DBUS CONGESTED CYCLE: 7.369
Channel 0 WQ ROW_BUFFER_HIT:     538414
  ROW_BUFFER_MISS:    3493538
  FULL:        142
Channel 0 REFRESHES ISSUED:      33665

VMEM ALIASED FILLS (cross-CPU shared-page hits): 897116
