[VMEM] WARNING: physical memory size is smaller than virtual memory size.

*** ChampSim Multicore Out-of-Order Simulator ***
Warmup Instructions: 50000000
Simulation Instructions: 100000000
Number of CPUs: 16
Page size: 4096

Off-chip DRAM Size: 16 GiB Channels: 1 Width: 64-bit Data Rate: 3205 MT/s
*** Reached end of trace: (11, "/home/harshraj/COALESCE-Hashed-Perceptron-Cache-Replacement-Policy/simulator/traces/canneal_big3.champsimtrace")
*** Reached end of trace: (2, "/home/harshraj/COALESCE-Hashed-Perceptron-Cache-Replacement-Policy/simulator/traces/canneal_big2.champsimtrace")
*** Reached end of trace: (7, "/home/harshraj/COALESCE-Hashed-Perceptron-Cache-Replacement-Policy/simulator/traces/canneal_big3.champsimtrace")
*** Reached end of trace: (3, "/home/harshraj/COALESCE-Hashed-Perceptron-Cache-Replacement-Policy/simulator/traces/canneal_big3.champsimtrace")
*** Reached end of trace: (15, "/home/harshraj/COALESCE-Hashed-Perceptron-Cache-Replacement-Policy/simulator/traces/canneal_big3.champsimtrace")
*** Reached end of trace: (10, "/home/harshraj/COALESCE-Hashed-Perceptron-Cache-Replacement-Policy/simulator/traces/canneal_big2.champsimtrace")
*** Reached end of trace: (6, "/home/harshraj/COALESCE-Hashed-Perceptron-Cache-Replacement-Policy/simulator/traces/canneal_big2.champsimtrace")
*** Reached end of trace: (14, "/home/harshraj/COALESCE-Hashed-Perceptron-Cache-Replacement-Policy/simulator/traces/canneal_big2.champsimtrace")
*** Reached end of trace: (0, "/home/harshraj/COALESCE-Hashed-Perceptron-Cache-Replacement-Policy/simulator/traces/canneal_big0.champsimtrace")
*** Reached end of trace: (8, "/home/harshraj/COALESCE-Hashed-Perceptron-Cache-Replacement-Policy/simulator/traces/canneal_big0.champsimtrace")
*** Reached end of trace: (12, "/home/harshraj/COALESCE-Hashed-Perceptron-Cache-Replacement-Policy/simulator/traces/canneal_big0.champsimtrace")
*** Reached end of trace: (4, "/home/harshraj/COALESCE-Hashed-Perceptron-Cache-Replacement-Policy/simulator/traces/canneal_big0.champsimtrace")
*** Reached end of trace: (11, "/home/harshraj/COALESCE-Hashed-Perceptron-Cache-Replacement-Policy/simulator/traces/canneal_big3.champsimtrace")
Heartbeat CPU 11 instructions: 10000001 cycles: 2503263 heartbeat IPC: 3.995 cumulative IPC: 3.995 (Simulation time: 00 hr 16 min 05 sec)
*** Reached end of trace: (2, "/home/harshraj/COALESCE-Hashed-Perceptron-Cache-Replacement-Policy/simulator/traces/canneal_big2.champsimtrace")
*** Reached end of trace: (7, "/home/harshraj/COALESCE-Hashed-Perceptron-Cache-Replacement-Policy/simulator/traces/canneal_big3.champsimtrace")
*** Reached end of trace: (3, "/home/harshraj/COALESCE-Hashed-Perceptron-Cache-Replacement-Policy/simulator/traces/canneal_big3.champsimtrace")
*** Reached end of trace: (15, "/home/harshraj/COALESCE-Hashed-Perceptron-Cache-Replacement-Policy/simulator/traces/canneal_big3.champsimtrace")
Heartbeat CPU 2 instructions: 10000001 cycles: 2503412 heartbeat IPC: 3.995 cumulative IPC: 3.995 (Simulation time: 00 hr 16 min 06 sec)
Heartbeat CPU 7 instructions: 10000001 cycles: 2503441 heartbeat IPC: 3.995 cumulative IPC: 3.995 (Simulation time: 00 hr 16 min 06 sec)
Heartbeat CPU 3 instructions: 10000001 cycles: 2503453 heartbeat IPC: 3.994 cumulative IPC: 3.994 (Simulation time: 00 hr 16 min 06 sec)
Heartbeat CPU 15 instructions: 10000001 cycles: 2503461 heartbeat IPC: 3.994 cumulative IPC: 3.994 (Simulation time: 00 hr 16 min 06 sec)
*** Reached end of trace: (10, "/home/harshraj/COALESCE-Hashed-Perceptron-Cache-Replacement-Policy/simulator/traces/canneal_big2.champsimtrace")
*** Reached end of trace: (6, "/home/harshraj/COALESCE-Hashed-Perceptron-Cache-Replacement-Policy/simulator/traces/canneal_big2.champsimtrace")
*** Reached end of trace: (14, "/home/harshraj/COALESCE-Hashed-Perceptron-Cache-Replacement-Policy/simulator/traces/canneal_big2.champsimtrace")
Heartbeat CPU 10 instructions: 10000001 cycles: 2503606 heartbeat IPC: 3.994 cumulative IPC: 3.994 (Simulation time: 00 hr 16 min 06 sec)
Heartbeat CPU 6 instructions: 10000001 cycles: 2503608 heartbeat IPC: 3.994 cumulative IPC: 3.994 (Simulation time: 00 hr 16 min 06 sec)
Heartbeat CPU 14 instructions: 10000001 cycles: 2503612 heartbeat IPC: 3.994 cumulative IPC: 3.994 (Simulation time: 00 hr 16 min 06 sec)
*** Reached end of trace: (11, "/home/harshraj/COALESCE-Hashed-Perceptron-Cache-Replacement-Policy/simulator/traces/canneal_big3.champsimtrace")
*** Reached end of trace: (2, "/home/harshraj/COALESCE-Hashed-Perceptron-Cache-Replacement-Policy/simulator/traces/canneal_big2.champsimtrace")
*** Reached end of trace: (7, "/home/harshraj/COALESCE-Hashed-Perceptron-Cache-Replacement-Policy/simulator/traces/canneal_big3.champsimtrace")
*** Reached end of trace: (3, "/home/harshraj/COALESCE-Hashed-Perceptron-Cache-Replacement-Policy/simulator/traces/canneal_big3.champsimtrace")
*** Reached end of trace: (15, "/home/harshraj/COALESCE-Hashed-Perceptron-Cache-Replacement-Policy/simulator/traces/canneal_big3.champsimtrace")
*** Reached end of trace: (10, "/home/harshraj/COALESCE-Hashed-Perceptron-Cache-Replacement-Policy/simulator/traces/canneal_big2.champsimtrace")
*** Reached end of trace: (6, "/home/harshraj/COALESCE-Hashed-Perceptron-Cache-Replacement-Policy/simulator/traces/canneal_big2.champsimtrace")
*** Reached end of trace: (14, "/home/harshraj/COALESCE-Hashed-Perceptron-Cache-Replacement-Policy/simulator/traces/canneal_big2.champsimtrace")
*** Reached end of trace: (8, "/home/harshraj/COALESCE-Hashed-Perceptron-Cache-Replacement-Policy/simulator/traces/canneal_big0.champsimtrace")
Heartbeat CPU 8 instructions: 10000003 cycles: 3966650 heartbeat IPC: 2.521 cumulative IPC: 2.521 (Simulation time: 00 hr 26 min 00 sec)
*** Reached end of trace: (12, "/home/harshraj/COALESCE-Hashed-Perceptron-Cache-Replacement-Policy/simulator/traces/canneal_big0.champsimtrace")
*** Reached end of trace: (0, "/home/harshraj/COALESCE-Hashed-Perceptron-Cache-Replacement-Policy/simulator/traces/canneal_big0.champsimtrace")
Heartbeat CPU 0 instructions: 10000003 cycles: 3969203 heartbeat IPC: 2.519 cumulative IPC: 2.519 (Simulation time: 00 hr 26 min 02 sec)
Heartbeat CPU 12 instructions: 10000003 cycles: 3969203 heartbeat IPC: 2.519 cumulative IPC: 2.519 (Simulation time: 00 hr 26 min 02 sec)
*** Reached end of trace: (4, "/home/harshraj/COALESCE-Hashed-Perceptron-Cache-Replacement-Policy/simulator/traces/canneal_big0.champsimtrace")
Heartbeat CPU 4 instructions: 10000003 cycles: 3973297 heartbeat IPC: 2.517 cumulative IPC: 2.517 (Simulation time: 00 hr 26 min 04 sec)
*** Reached end of trace: (9, "/home/harshraj/COALESCE-Hashed-Perceptron-Cache-Replacement-Policy/simulator/traces/canneal_big1.champsimtrace")
*** Reached end of trace: (1, "/home/harshraj/COALESCE-Hashed-Perceptron-Cache-Replacement-Policy/simulator/traces/canneal_big1.champsimtrace")
*** Reached end of trace: (5, "/home/harshraj/COALESCE-Hashed-Perceptron-Cache-Replacement-Policy/simulator/traces/canneal_big1.champsimtrace")
*** Reached end of trace: (13, "/home/harshraj/COALESCE-Hashed-Perceptron-Cache-Replacement-Policy/simulator/traces/canneal_big1.champsimtrace")
*** Reached end of trace: (11, "/home/harshraj/COALESCE-Hashed-Perceptron-Cache-Replacement-Policy/simulator/traces/canneal_big3.champsimtrace")
Heartbeat CPU 11 instructions: 20000001 cycles: 5003263 heartbeat IPC: 4 cumulative IPC: 3.997 (Simulation time: 00 hr 33 min 33 sec)
*** Reached end of trace: (2, "/home/harshraj/COALESCE-Hashed-Perceptron-Cache-Replacement-Policy/simulator/traces/canneal_big2.champsimtrace")
*** Reached end of trace: (7, "/home/harshraj/COALESCE-Hashed-Perceptron-Cache-Replacement-Policy/simulator/traces/canneal_big3.champsimtrace")
*** Reached end of trace: (3, "/home/harshraj/COALESCE-Hashed-Perceptron-Cache-Replacement-Policy/simulator/traces/canneal_big3.champsimtrace")
*** Reached end of trace: (15, "/home/harshraj/COALESCE-Hashed-Perceptron-Cache-Replacement-Policy/simulator/traces/canneal_big3.champsimtrace")
Heartbeat CPU 2 instructions: 20000001 cycles: 5003412 heartbeat IPC: 4 cumulative IPC: 3.997 (Simulation time: 00 hr 33 min 33 sec)
Heartbeat CPU 7 instructions: 20000001 cycles: 5003441 heartbeat IPC: 4 cumulative IPC: 3.997 (Simulation time: 00 hr 33 min 33 sec)
Heartbeat CPU 3 instructions: 20000001 cycles: 5003453 heartbeat IPC: 4 cumulative IPC: 3.997 (Simulation time: 00 hr 33 min 33 sec)
Heartbeat CPU 15 instructions: 20000001 cycles: 5003461 heartbeat IPC: 4 cumulative IPC: 3.997 (Simulation time: 00 hr 33 min 33 sec)
*** Reached end of trace: (10, "/home/harshraj/COALESCE-Hashed-Perceptron-Cache-Replacement-Policy/simulator/traces/canneal_big2.champsimtrace")
*** Reached end of trace: (6, "/home/harshraj/COALESCE-Hashed-Perceptron-Cache-Replacement-Policy/simulator/traces/canneal_big2.champsimtrace")
*** Reached end of trace: (14, "/home/harshraj/COALESCE-Hashed-Perceptron-Cache-Replacement-Policy/simulator/traces/canneal_big2.champsimtrace")
Heartbeat CPU 10 instructions: 20000001 cycles: 5003606 heartbeat IPC: 4 cumulative IPC: 3.997 (Simulation time: 00 hr 33 min 33 sec)
Heartbeat CPU 6 instructions: 20000001 cycles: 5003608 heartbeat IPC: 4 cumulative IPC: 3.997 (Simulation time: 00 hr 33 min 33 sec)
Heartbeat CPU 14 instructions: 20000001 cycles: 5003612 heartbeat IPC: 4 cumulative IPC: 3.997 (Simulation time: 00 hr 33 min 33 sec)
*** Reached end of trace: (8, "/home/harshraj/COALESCE-Hashed-Perceptron-Cache-Replacement-Policy/simulator/traces/canneal_big0.champsimtrace")
*** Reached end of trace: (12, "/home/harshraj/COALESCE-Hashed-Perceptron-Cache-Replacement-Policy/simulator/traces/canneal_big0.champsimtrace")
*** Reached end of trace: (0, "/home/harshraj/COALESCE-Hashed-Perceptron-Cache-Replacement-Policy/simulator/traces/canneal_big0.champsimtrace")
*** Reached end of trace: (4, "/home/harshraj/COALESCE-Hashed-Perceptron-Cache-Replacement-Policy/simulator/traces/canneal_big0.champsimtrace")
*** Reached end of trace: (11, "/home/harshraj/COALESCE-Hashed-Perceptron-Cache-Replacement-Policy/simulator/traces/canneal_big3.champsimtrace")
*** Reached end of trace: (2, "/home/harshraj/COALESCE-Hashed-Perceptron-Cache-Replacement-Policy/simulator/traces/canneal_big2.champsimtrace")
*** Reached end of trace: (7, "/home/harshraj/COALESCE-Hashed-Perceptron-Cache-Replacement-Policy/simulator/traces/canneal_big3.champsimtrace")
*** Reached end of trace: (3, "/home/harshraj/COALESCE-Hashed-Perceptron-Cache-Replacement-Policy/simulator/traces/canneal_big3.champsimtrace")
*** Reached end of trace: (15, "/home/harshraj/COALESCE-Hashed-Perceptron-Cache-Replacement-Policy/simulator/traces/canneal_big3.champsimtrace")
*** Reached end of trace: (10, "/home/harshraj/COALESCE-Hashed-Perceptron-Cache-Replacement-Policy/simulator/traces/canneal_big2.champsimtrace")
*** Reached end of trace: (6, "/home/harshraj/COALESCE-Hashed-Perceptron-Cache-Replacement-Policy/simulator/traces/canneal_big2.champsimtrace")
*** Reached end of trace: (14, "/home/harshraj/COALESCE-Hashed-Perceptron-Cache-Replacement-Policy/simulator/traces/canneal_big2.champsimtrace")
*** Reached end of trace: (13, "/home/harshraj/COALESCE-Hashed-Perceptron-Cache-Replacement-Policy/simulator/traces/canneal_big1.champsimtrace")
*** Reached end of trace: (1, "/home/harshraj/COALESCE-Hashed-Perceptron-Cache-Replacement-Policy/simulator/traces/canneal_big1.champsimtrace")
Heartbeat CPU 13 instructions: 10000002 cycles: 7022398 heartbeat IPC: 1.424 cumulative IPC: 1.424 (Simulation time: 00 hr 47 min 32 sec)
Heartbeat CPU 1 instructions: 10000002 cycles: 7022406 heartbeat IPC: 1.424 cumulative IPC: 1.424 (Simulation time: 00 hr 47 min 32 sec)
*** Reached end of trace: (9, "/home/harshraj/COALESCE-Hashed-Perceptron-Cache-Replacement-Policy/simulator/traces/canneal_big1.champsimtrace")
Heartbeat CPU 9 instructions: 10000002 cycles: 7023006 heartbeat IPC: 1.424 cumulative IPC: 1.424 (Simulation time: 00 hr 47 min 32 sec)
*** Reached end of trace: (5, "/home/harshraj/COALESCE-Hashed-Perceptron-Cache-Replacement-Policy/simulator/traces/canneal_big1.champsimtrace")
Heartbeat CPU 5 instructions: 10000002 cycles: 7029910 heartbeat IPC: 1.422 cumulative IPC: 1.422 (Simulation time: 00 hr 47 min 35 sec)
*** Reached end of trace: (11, "/home/harshraj/COALESCE-Hashed-Perceptron-Cache-Replacement-Policy/simulator/traces/canneal_big3.champsimtrace")
Heartbeat CPU 11 instructions: 30000001 cycles: 7503263 heartbeat IPC: 4 cumulative IPC: 3.998 (Simulation time: 00 hr 50 min 39 sec)
*** Reached end of trace: (2, "/home/harshraj/COALESCE-Hashed-Perceptron-Cache-Replacement-Policy/simulator/traces/canneal_big2.champsimtrace")
*** Reached end of trace: (7, "/home/harshraj/COALESCE-Hashed-Perceptron-Cache-Replacement-Policy/simulator/traces/canneal_big3.champsimtrace")
*** Reached end of trace: (3, "/home/harshraj/COALESCE-Hashed-Perceptron-Cache-Replacement-Policy/simulator/traces/canneal_big3.champsimtrace")
*** Reached end of trace: (15, "/home/harshraj/COALESCE-Hashed-Perceptron-Cache-Replacement-Policy/simulator/traces/canneal_big3.champsimtrace")
Heartbeat CPU 2 instructions: 30000001 cycles: 7503412 heartbeat IPC: 4 cumulative IPC: 3.998 (Simulation time: 00 hr 50 min 39 sec)
Heartbeat CPU 7 instructions: 30000001 cycles: 7503441 heartbeat IPC: 4 cumulative IPC: 3.998 (Simulation time: 00 hr 50 min 39 sec)
Heartbeat CPU 3 instructions: 30000001 cycles: 7503453 heartbeat IPC: 4 cumulative IPC: 3.998 (Simulation time: 00 hr 50 min 39 sec)
Heartbeat CPU 15 instructions: 30000001 cycles: 7503461 heartbeat IPC: 4 cumulative IPC: 3.998 (Simulation time: 00 hr 50 min 39 sec)
*** Reached end of trace: (10, "/home/harshraj/COALESCE-Hashed-Perceptron-Cache-Replacement-Policy/simulator/traces/canneal_big2.champsimtrace")
*** Reached end of trace: (6, "/home/harshraj/COALESCE-Hashed-Perceptron-Cache-Replacement-Policy/simulator/traces/canneal_big2.champsimtrace")
*** Reached end of trace: (14, "/home/harshraj/COALESCE-Hashed-Perceptron-Cache-Replacement-Policy/simulator/traces/canneal_big2.champsimtrace")
Heartbeat CPU 10 instructions: 30000001 cycles: 7503606 heartbeat IPC: 4 cumulative IPC: 3.998 (Simulation time: 00 hr 50 min 39 sec)
Heartbeat CPU 6 instructions: 30000001 cycles: 7503608 heartbeat IPC: 4 cumulative IPC: 3.998 (Simulation time: 00 hr 50 min 39 sec)
Heartbeat CPU 14 instructions: 30000001 cycles: 7503612 heartbeat IPC: 4 cumulative IPC: 3.998 (Simulation time: 00 hr 50 min 39 sec)
*** Reached end of trace: (8, "/home/harshraj/COALESCE-Hashed-Perceptron-Cache-Replacement-Policy/simulator/traces/canneal_big0.champsimtrace")
Heartbeat CPU 8 instructions: 20000006 cycles: 7808535 heartbeat IPC: 2.603 cumulative IPC: 2.561 (Simulation time: 00 hr 52 min 31 sec)
*** Reached end of trace: (12, "/home/harshraj/COALESCE-Hashed-Perceptron-Cache-Replacement-Policy/simulator/traces/canneal_big0.champsimtrace")
*** Reached end of trace: (0, "/home/harshraj/COALESCE-Hashed-Perceptron-Cache-Replacement-Policy/simulator/traces/canneal_big0.champsimtrace")
Heartbeat CPU 0 instructions: 20000006 cycles: 7812681 heartbeat IPC: 2.602 cumulative IPC: 2.56 (Simulation time: 00 hr 52 min 32 sec)
Heartbeat CPU 12 instructions: 20000006 cycles: 7812681 heartbeat IPC: 2.602 cumulative IPC: 2.56 (Simulation time: 00 hr 52 min 32 sec)
*** Reached end of trace: (4, "/home/harshraj/COALESCE-Hashed-Perceptron-Cache-Replacement-Policy/simulator/traces/canneal_big0.champsimtrace")
Heartbeat CPU 4 instructions: 20000006 cycles: 7827655 heartbeat IPC: 2.594 cumulative IPC: 2.555 (Simulation time: 00 hr 52 min 38 sec)
*** Reached end of trace: (11, "/home/harshraj/COALESCE-Hashed-Perceptron-Cache-Replacement-Policy/simulator/traces/canneal_big3.champsimtrace")
*** Reached end of trace: (2, "/home/harshraj/COALESCE-Hashed-Perceptron-Cache-Replacement-Policy/simulator/traces/canneal_big2.champsimtrace")
*** Reached end of trace: (7, "/home/harshraj/COALESCE-Hashed-Perceptron-Cache-Replacement-Policy/simulator/traces/canneal_big3.champsimtrace")
*** Reached end of trace: (3, "/home/harshraj/COALESCE-Hashed-Perceptron-Cache-Replacement-Policy/simulator/traces/canneal_big3.champsimtrace")
*** Reached end of trace: (15, "/home/harshraj/COALESCE-Hashed-Perceptron-Cache-Replacement-Policy/simulator/traces/canneal_big3.champsimtrace")
*** Reached end of trace: (10, "/home/harshraj/COALESCE-Hashed-Perceptron-Cache-Replacement-Policy/simulator/traces/canneal_big2.champsimtrace")
*** Reached end of trace: (6, "/home/harshraj/COALESCE-Hashed-Perceptron-Cache-Replacement-Policy/simulator/traces/canneal_big2.champsimtrace")
*** Reached end of trace: (14, "/home/harshraj/COALESCE-Hashed-Perceptron-Cache-Replacement-Policy/simulator/traces/canneal_big2.champsimtrace")
*** Reached end of trace: (8, "/home/harshraj/COALESCE-Hashed-Perceptron-Cache-Replacement-Policy/simulator/traces/canneal_big0.champsimtrace")
*** Reached end of trace: (12, "/home/harshraj/COALESCE-Hashed-Perceptron-Cache-Replacement-Policy/simulator/traces/canneal_big0.champsimtrace")
*** Reached end of trace: (0, "/home/harshraj/COALESCE-Hashed-Perceptron-Cache-Replacement-Policy/simulator/traces/canneal_big0.champsimtrace")
*** Reached end of trace: (4, "/home/harshraj/COALESCE-Hashed-Perceptron-Cache-Replacement-Policy/simulator/traces/canneal_big0.champsimtrace")
*** Reached end of trace: (13, "/home/harshraj/COALESCE-Hashed-Perceptron-Cache-Replacement-Policy/simulator/traces/canneal_big1.champsimtrace")
*** Reached end of trace: (1, "/home/harshraj/COALESCE-Hashed-Perceptron-Cache-Replacement-Policy/simulator/traces/canneal_big1.champsimtrace")
*** Reached end of trace: (9, "/home/harshraj/COALESCE-Hashed-Perceptron-Cache-Replacement-Policy/simulator/traces/canneal_big1.champsimtrace")
*** Reached end of trace: (5, "/home/harshraj/COALESCE-Hashed-Perceptron-Cache-Replacement-Policy/simulator/traces/canneal_big1.champsimtrace")
*** Reached end of trace: (11, "/home/harshraj/COALESCE-Hashed-Perceptron-Cache-Replacement-Policy/simulator/traces/canneal_big3.champsimtrace")
Heartbeat CPU 11 instructions: 40000001 cycles: 10003263 heartbeat IPC: 4 cumulative IPC: 3.999 (Simulation time: 01 hr 05 min 07 sec)
*** Reached end of trace: (2, "/home/harshraj/COALESCE-Hashed-Perceptron-Cache-Replacement-Policy/simulator/traces/canneal_big2.champsimtrace")
*** Reached end of trace: (7, "/home/harshraj/COALESCE-Hashed-Perceptron-Cache-Replacement-Policy/simulator/traces/canneal_big3.champsimtrace")
*** Reached end of trace: (3, "/home/harshraj/COALESCE-Hashed-Perceptron-Cache-Replacement-Policy/simulator/traces/canneal_big3.champsimtrace")
*** Reached end of trace: (15, "/home/harshraj/COALESCE-Hashed-Perceptron-Cache-Replacement-Policy/simulator/traces/canneal_big3.champsimtrace")
Heartbeat CPU 2 instructions: 40000001 cycles: 10003412 heartbeat IPC: 4 cumulative IPC: 3.999 (Simulation time: 01 hr 05 min 07 sec)
Heartbeat CPU 7 instructions: 40000001 cycles: 10003441 heartbeat IPC: 4 cumulative IPC: 3.999 (Simulation time: 01 hr 05 min 07 sec)
Heartbeat CPU 3 instructions: 40000001 cycles: 10003453 heartbeat IPC: 4 cumulative IPC: 3.999 (Simulation time: 01 hr 05 min 07 sec)
Heartbeat CPU 15 instructions: 40000001 cycles: 10003461 heartbeat IPC: 4 cumulative IPC: 3.999 (Simulation time: 01 hr 05 min 07 sec)
*** Reached end of trace: (10, "/home/harshraj/COALESCE-Hashed-Perceptron-Cache-Replacement-Policy/simulator/traces/canneal_big2.champsimtrace")
*** Reached end of trace: (6, "/home/harshraj/COALESCE-Hashed-Perceptron-Cache-Replacement-Policy/simulator/traces/canneal_big2.champsimtrace")
*** Reached end of trace: (14, "/home/harshraj/COALESCE-Hashed-Perceptron-Cache-Replacement-Policy/simulator/traces/canneal_big2.champsimtrace")
Heartbeat CPU 10 instructions: 40000001 cycles: 10003606 heartbeat IPC: 4 cumulative IPC: 3.999 (Simulation time: 01 hr 05 min 08 sec)
Heartbeat CPU 6 instructions: 40000001 cycles: 10003608 heartbeat IPC: 4 cumulative IPC: 3.999 (Simulation time: 01 hr 05 min 08 sec)
Heartbeat CPU 14 instructions: 40000001 cycles: 10003612 heartbeat IPC: 4 cumulative IPC: 3.999 (Simulation time: 01 hr 05 min 08 sec)
*** Reached end of trace: (11, "/home/harshraj/COALESCE-Hashed-Perceptron-Cache-Replacement-Policy/simulator/traces/canneal_big3.champsimtrace")
*** Reached end of trace: (2, "/home/harshraj/COALESCE-Hashed-Perceptron-Cache-Replacement-Policy/simulator/traces/canneal_big2.champsimtrace")
*** Reached end of trace: (7, "/home/harshraj/COALESCE-Hashed-Perceptron-Cache-Replacement-Policy/simulator/traces/canneal_big3.champsimtrace")
*** Reached end of trace: (3, "/home/harshraj/COALESCE-Hashed-Perceptron-Cache-Replacement-Policy/simulator/traces/canneal_big3.champsimtrace")
*** Reached end of trace: (15, "/home/harshraj/COALESCE-Hashed-Perceptron-Cache-Replacement-Policy/simulator/traces/canneal_big3.champsimtrace")
*** Reached end of trace: (10, "/home/harshraj/COALESCE-Hashed-Perceptron-Cache-Replacement-Policy/simulator/traces/canneal_big2.champsimtrace")
*** Reached end of trace: (6, "/home/harshraj/COALESCE-Hashed-Perceptron-Cache-Replacement-Policy/simulator/traces/canneal_big2.champsimtrace")
*** Reached end of trace: (14, "/home/harshraj/COALESCE-Hashed-Perceptron-Cache-Replacement-Policy/simulator/traces/canneal_big2.champsimtrace")
*** Reached end of trace: (8, "/home/harshraj/COALESCE-Hashed-Perceptron-Cache-Replacement-Policy/simulator/traces/canneal_big0.champsimtrace")
Heartbeat CPU 8 instructions: 30000009 cycles: 11650321 heartbeat IPC: 2.603 cumulative IPC: 2.575 (Simulation time: 01 hr 17 min 20 sec)
*** Reached end of trace: (12, "/home/harshraj/COALESCE-Hashed-Perceptron-Cache-Replacement-Policy/simulator/traces/canneal_big0.champsimtrace")
*** Reached end of trace: (0, "/home/harshraj/COALESCE-Hashed-Perceptron-Cache-Replacement-Policy/simulator/traces/canneal_big0.champsimtrace")
Heartbeat CPU 0 instructions: 30000009 cycles: 11656183 heartbeat IPC: 2.602 cumulative IPC: 2.574 (Simulation time: 01 hr 17 min 23 sec)
Heartbeat CPU 12 instructions: 30000009 cycles: 11656183 heartbeat IPC: 2.602 cumulative IPC: 2.574 (Simulation time: 01 hr 17 min 23 sec)
*** Reached end of trace: (4, "/home/harshraj/COALESCE-Hashed-Perceptron-Cache-Replacement-Policy/simulator/traces/canneal_big0.champsimtrace")
Heartbeat CPU 4 instructions: 30000009 cycles: 11681974 heartbeat IPC: 2.594 cumulative IPC: 2.568 (Simulation time: 01 hr 17 min 36 sec)
*** Reached end of trace: (11, "/home/harshraj/COALESCE-Hashed-Perceptron-Cache-Replacement-Policy/simulator/traces/canneal_big3.champsimtrace")
Heartbeat CPU 11 instructions: 50000001 cycles: 12503263 heartbeat IPC: 4 cumulative IPC: 3.999 (Simulation time: 01 hr 23 min 50 sec)
Warmup finished CPU 11 instructions: 50000001 cycles: 12503263 cumulative IPC: 3.999 (Simulation time: 01 hr 23 min 50 sec)
*** Reached end of trace: (2, "/home/harshraj/COALESCE-Hashed-Perceptron-Cache-Replacement-Policy/simulator/traces/canneal_big2.champsimtrace")
*** Reached end of trace: (7, "/home/harshraj/COALESCE-Hashed-Perceptron-Cache-Replacement-Policy/simulator/traces/canneal_big3.champsimtrace")
*** Reached end of trace: (3, "/home/harshraj/COALESCE-Hashed-Perceptron-Cache-Replacement-Policy/simulator/traces/canneal_big3.champsimtrace")
*** Reached end of trace: (15, "/home/harshraj/COALESCE-Hashed-Perceptron-Cache-Replacement-Policy/simulator/traces/canneal_big3.champsimtrace")
Heartbeat CPU 2 instructions: 50000001 cycles: 12503412 heartbeat IPC: 4 cumulative IPC: 3.999 (Simulation time: 01 hr 23 min 50 sec)
Warmup finished CPU 2 instructions: 50000001 cycles: 12503412 cumulative IPC: 3.999 (Simulation time: 01 hr 23 min 50 sec)
Heartbeat CPU 7 instructions: 50000001 cycles: 12503441 heartbeat IPC: 4 cumulative IPC: 3.999 (Simulation time: 01 hr 23 min 50 sec)
Warmup finished CPU 7 instructions: 50000001 cycles: 12503441 cumulative IPC: 3.999 (Simulation time: 01 hr 23 min 50 sec)
Heartbeat CPU 3 instructions: 50000001 cycles: 12503453 heartbeat IPC: 4 cumulative IPC: 3.999 (Simulation time: 01 hr 23 min 50 sec)
Warmup finished CPU 3 instructions: 50000001 cycles: 12503453 cumulative IPC: 3.999 (Simulation time: 01 hr 23 min 50 sec)
Heartbeat CPU 15 instructions: 50000001 cycles: 12503461 heartbeat IPC: 4 cumulative IPC: 3.999 (Simulation time: 01 hr 23 min 50 sec)
Warmup finished CPU 15 instructions: 50000001 cycles: 12503461 cumulative IPC: 3.999 (Simulation time: 01 hr 23 min 50 sec)
*** Reached end of trace: (10, "/home/harshraj/COALESCE-Hashed-Perceptron-Cache-Replacement-Policy/simulator/traces/canneal_big2.champsimtrace")
*** Reached end of trace: (6, "/home/harshraj/COALESCE-Hashed-Perceptron-Cache-Replacement-Policy/simulator/traces/canneal_big2.champsimtrace")
*** Reached end of trace: (14, "/home/harshraj/COALESCE-Hashed-Perceptron-Cache-Replacement-Policy/simulator/traces/canneal_big2.champsimtrace")
Heartbeat CPU 10 instructions: 50000001 cycles: 12503606 heartbeat IPC: 4 cumulative IPC: 3.999 (Simulation time: 01 hr 23 min 50 sec)
Warmup finished CPU 10 instructions: 50000001 cycles: 12503606 cumulative IPC: 3.999 (Simulation time: 01 hr 23 min 50 sec)
Heartbeat CPU 6 instructions: 50000001 cycles: 12503608 heartbeat IPC: 4 cumulative IPC: 3.999 (Simulation time: 01 hr 23 min 50 sec)
Warmup finished CPU 6 instructions: 50000001 cycles: 12503608 cumulative IPC: 3.999 (Simulation time: 01 hr 23 min 50 sec)
Heartbeat CPU 14 instructions: 50000001 cycles: 12503612 heartbeat IPC: 4 cumulative IPC: 3.999 (Simulation time: 01 hr 23 min 50 sec)
Warmup finished CPU 14 instructions: 50000001 cycles: 12503612 cumulative IPC: 3.999 (Simulation time: 01 hr 23 min 50 sec)
*** Reached end of trace: (13, "/home/harshraj/COALESCE-Hashed-Perceptron-Cache-Replacement-Policy/simulator/traces/canneal_big1.champsimtrace")
*** Reached end of trace: (1, "/home/harshraj/COALESCE-Hashed-Perceptron-Cache-Replacement-Policy/simulator/traces/canneal_big1.champsimtrace")
Heartbeat CPU 13 instructions: 20000004 cycles: 12705029 heartbeat IPC: 1.76 cumulative IPC: 1.574 (Simulation time: 01 hr 25 min 18 sec)
Heartbeat CPU 1 instructions: 20000004 cycles: 12705030 heartbeat IPC: 1.76 cumulative IPC: 1.574 (Simulation time: 01 hr 25 min 18 sec)
*** Reached end of trace: (9, "/home/harshraj/COALESCE-Hashed-Perceptron-Cache-Replacement-Policy/simulator/traces/canneal_big1.champsimtrace")
Heartbeat CPU 9 instructions: 20000004 cycles: 12706814 heartbeat IPC: 1.759 cumulative IPC: 1.574 (Simulation time: 01 hr 25 min 19 sec)
*** Reached end of trace: (5, "/home/harshraj/COALESCE-Hashed-Perceptron-Cache-Replacement-Policy/simulator/traces/canneal_big1.champsimtrace")
Heartbeat CPU 5 instructions: 20000004 cycles: 12727697 heartbeat IPC: 1.755 cumulative IPC: 1.571 (Simulation time: 01 hr 25 min 26 sec)
*** Reached end of trace: (8, "/home/harshraj/COALESCE-Hashed-Perceptron-Cache-Replacement-Policy/simulator/traces/canneal_big0.champsimtrace")
*** Reached end of trace: (12, "/home/harshraj/COALESCE-Hashed-Perceptron-Cache-Replacement-Policy/simulator/traces/canneal_big0.champsimtrace")
*** Reached end of trace: (0, "/home/harshraj/COALESCE-Hashed-Perceptron-Cache-Replacement-Policy/simulator/traces/canneal_big0.champsimtrace")
*** Reached end of trace: (4, "/home/harshraj/COALESCE-Hashed-Perceptron-Cache-Replacement-Policy/simulator/traces/canneal_big0.champsimtrace")
*** Reached end of trace: (11, "/home/harshraj/COALESCE-Hashed-Perceptron-Cache-Replacement-Policy/simulator/traces/canneal_big3.champsimtrace")
*** Reached end of trace: (2, "/home/harshraj/COALESCE-Hashed-Perceptron-Cache-Replacement-Policy/simulator/traces/canneal_big2.champsimtrace")
*** Reached end of trace: (7, "/home/harshraj/COALESCE-Hashed-Perceptron-Cache-Replacement-Policy/simulator/traces/canneal_big3.champsimtrace")
*** Reached end of trace: (3, "/home/harshraj/COALESCE-Hashed-Perceptron-Cache-Replacement-Policy/simulator/traces/canneal_big3.champsimtrace")
*** Reached end of trace: (15, "/home/harshraj/COALESCE-Hashed-Perceptron-Cache-Replacement-Policy/simulator/traces/canneal_big3.champsimtrace")
*** Reached end of trace: (10, "/home/harshraj/COALESCE-Hashed-Perceptron-Cache-Replacement-Policy/simulator/traces/canneal_big2.champsimtrace")
*** Reached end of trace: (6, "/home/harshraj/COALESCE-Hashed-Perceptron-Cache-Replacement-Policy/simulator/traces/canneal_big2.champsimtrace")
*** Reached end of trace: (14, "/home/harshraj/COALESCE-Hashed-Perceptron-Cache-Replacement-Policy/simulator/traces/canneal_big2.champsimtrace")
*** Reached end of trace: (11, "/home/harshraj/COALESCE-Hashed-Perceptron-Cache-Replacement-Policy/simulator/traces/canneal_big3.champsimtrace")
Heartbeat CPU 11 instructions: 60000001 cycles: 15003263 heartbeat IPC: 4 cumulative IPC: 3.999 (Simulation time: 01 hr 39 min 46 sec)
*** Reached end of trace: (2, "/home/harshraj/COALESCE-Hashed-Perceptron-Cache-Replacement-Policy/simulator/traces/canneal_big2.champsimtrace")
*** Reached end of trace: (7, "/home/harshraj/COALESCE-Hashed-Perceptron-Cache-Replacement-Policy/simulator/traces/canneal_big3.champsimtrace")
*** Reached end of trace: (3, "/home/harshraj/COALESCE-Hashed-Perceptron-Cache-Replacement-Policy/simulator/traces/canneal_big3.champsimtrace")
*** Reached end of trace: (15, "/home/harshraj/COALESCE-Hashed-Perceptron-Cache-Replacement-Policy/simulator/traces/canneal_big3.champsimtrace")
Heartbeat CPU 2 instructions: 60000001 cycles: 15003412 heartbeat IPC: 4 cumulative IPC: 3.999 (Simulation time: 01 hr 39 min 46 sec)
Heartbeat CPU 7 instructions: 60000001 cycles: 15003441 heartbeat IPC: 4 cumulative IPC: 3.999 (Simulation time: 01 hr 39 min 46 sec)
Heartbeat CPU 3 instructions: 60000001 cycles: 15003453 heartbeat IPC: 4 cumulative IPC: 3.999 (Simulation time: 01 hr 39 min 46 sec)
Heartbeat CPU 15 instructions: 60000001 cycles: 15003461 heartbeat IPC: 4 cumulative IPC: 3.999 (Simulation time: 01 hr 39 min 46 sec)
*** Reached end of trace: (10, "/home/harshraj/COALESCE-Hashed-Perceptron-Cache-Replacement-Policy/simulator/traces/canneal_big2.champsimtrace")
*** Reached end of trace: (6, "/home/harshraj/COALESCE-Hashed-Perceptron-Cache-Replacement-Policy/simulator/traces/canneal_big2.champsimtrace")
*** Reached end of trace: (14, "/home/harshraj/COALESCE-Hashed-Perceptron-Cache-Replacement-Policy/simulator/traces/canneal_big2.champsimtrace")
Heartbeat CPU 10 instructions: 60000001 cycles: 15003606 heartbeat IPC: 4 cumulative IPC: 3.999 (Simulation time: 01 hr 39 min 46 sec)
Heartbeat CPU 6 instructions: 60000001 cycles: 15003608 heartbeat IPC: 4 cumulative IPC: 3.999 (Simulation time: 01 hr 39 min 46 sec)
Heartbeat CPU 14 instructions: 60000001 cycles: 15003612 heartbeat IPC: 4 cumulative IPC: 3.999 (Simulation time: 01 hr 39 min 47 sec)
*** Reached end of trace: (8, "/home/harshraj/COALESCE-Hashed-Perceptron-Cache-Replacement-Policy/simulator/traces/canneal_big0.champsimtrace")
Heartbeat CPU 8 instructions: 40000012 cycles: 15492232 heartbeat IPC: 2.603 cumulative IPC: 2.582 (Simulation time: 01 hr 43 min 31 sec)
*** Reached end of trace: (12, "/home/harshraj/COALESCE-Hashed-Perceptron-Cache-Replacement-Policy/simulator/traces/canneal_big0.champsimtrace")
*** Reached end of trace: (0, "/home/harshraj/COALESCE-Hashed-Perceptron-Cache-Replacement-Policy/simulator/traces/canneal_big0.champsimtrace")
Heartbeat CPU 12 instructions: 40000012 cycles: 15500401 heartbeat IPC: 2.601 cumulative IPC: 2.581 (Simulation time: 01 hr 43 min 35 sec)
Heartbeat CPU 0 instructions: 40000012 cycles: 15500582 heartbeat IPC: 2.601 cumulative IPC: 2.581 (Simulation time: 01 hr 43 min 35 sec)
*** Reached end of trace: (4, "/home/harshraj/COALESCE-Hashed-Perceptron-Cache-Replacement-Policy/simulator/traces/canneal_big0.champsimtrace")
Heartbeat CPU 4 instructions: 40000012 cycles: 15536002 heartbeat IPC: 2.595 cumulative IPC: 2.575 (Simulation time: 01 hr 43 min 51 sec)
*** Reached end of trace: (13, "/home/harshraj/COALESCE-Hashed-Perceptron-Cache-Replacement-Policy/simulator/traces/canneal_big1.champsimtrace")
*** Reached end of trace: (1, "/home/harshraj/COALESCE-Hashed-Perceptron-Cache-Replacement-Policy/simulator/traces/canneal_big1.champsimtrace")
*** Reached end of trace: (9, "/home/harshraj/COALESCE-Hashed-Perceptron-Cache-Replacement-Policy/simulator/traces/canneal_big1.champsimtrace")
*** Reached end of trace: (5, "/home/harshraj/COALESCE-Hashed-Perceptron-Cache-Replacement-Policy/simulator/traces/canneal_big1.champsimtrace")
*** Reached end of trace: (11, "/home/harshraj/COALESCE-Hashed-Perceptron-Cache-Replacement-Policy/simulator/traces/canneal_big3.champsimtrace")
*** Reached end of trace: (2, "/home/harshraj/COALESCE-Hashed-Perceptron-Cache-Replacement-Policy/simulator/traces/canneal_big2.champsimtrace")
*** Reached end of trace: (7, "/home/harshraj/COALESCE-Hashed-Perceptron-Cache-Replacement-Policy/simulator/traces/canneal_big3.champsimtrace")
*** Reached end of trace: (3, "/home/harshraj/COALESCE-Hashed-Perceptron-Cache-Replacement-Policy/simulator/traces/canneal_big3.champsimtrace")
*** Reached end of trace: (15, "/home/harshraj/COALESCE-Hashed-Perceptron-Cache-Replacement-Policy/simulator/traces/canneal_big3.champsimtrace")
*** Reached end of trace: (10, "/home/harshraj/COALESCE-Hashed-Perceptron-Cache-Replacement-Policy/simulator/traces/canneal_big2.champsimtrace")
*** Reached end of trace: (6, "/home/harshraj/COALESCE-Hashed-Perceptron-Cache-Replacement-Policy/simulator/traces/canneal_big2.champsimtrace")
*** Reached end of trace: (14, "/home/harshraj/COALESCE-Hashed-Perceptron-Cache-Replacement-Policy/simulator/traces/canneal_big2.champsimtrace")
*** Reached end of trace: (8, "/home/harshraj/COALESCE-Hashed-Perceptron-Cache-Replacement-Policy/simulator/traces/canneal_big0.champsimtrace")
*** Reached end of trace: (12, "/home/harshraj/COALESCE-Hashed-Perceptron-Cache-Replacement-Policy/simulator/traces/canneal_big0.champsimtrace")
*** Reached end of trace: (0, "/home/harshraj/COALESCE-Hashed-Perceptron-Cache-Replacement-Policy/simulator/traces/canneal_big0.champsimtrace")
*** Reached end of trace: (4, "/home/harshraj/COALESCE-Hashed-Perceptron-Cache-Replacement-Policy/simulator/traces/canneal_big0.champsimtrace")
*** Reached end of trace: (11, "/home/harshraj/COALESCE-Hashed-Perceptron-Cache-Replacement-Policy/simulator/traces/canneal_big3.champsimtrace")
Heartbeat CPU 11 instructions: 70000001 cycles: 17503263 heartbeat IPC: 4 cumulative IPC: 3.999 (Simulation time: 01 hr 56 min 13 sec)
*** Reached end of trace: (2, "/home/harshraj/COALESCE-Hashed-Perceptron-Cache-Replacement-Policy/simulator/traces/canneal_big2.champsimtrace")
*** Reached end of trace: (7, "/home/harshraj/COALESCE-Hashed-Perceptron-Cache-Replacement-Policy/simulator/traces/canneal_big3.champsimtrace")
*** Reached end of trace: (3, "/home/harshraj/COALESCE-Hashed-Perceptron-Cache-Replacement-Policy/simulator/traces/canneal_big3.champsimtrace")
*** Reached end of trace: (15, "/home/harshraj/COALESCE-Hashed-Perceptron-Cache-Replacement-Policy/simulator/traces/canneal_big3.champsimtrace")
Heartbeat CPU 2 instructions: 70000001 cycles: 17503412 heartbeat IPC: 4 cumulative IPC: 3.999 (Simulation time: 01 hr 56 min 13 sec)
Heartbeat CPU 7 instructions: 70000001 cycles: 17503441 heartbeat IPC: 4 cumulative IPC: 3.999 (Simulation time: 01 hr 56 min 13 sec)
Heartbeat CPU 3 instructions: 70000001 cycles: 17503453 heartbeat IPC: 4 cumulative IPC: 3.999 (Simulation time: 01 hr 56 min 13 sec)
Heartbeat CPU 15 instructions: 70000001 cycles: 17503461 heartbeat IPC: 4 cumulative IPC: 3.999 (Simulation time: 01 hr 56 min 13 sec)
*** Reached end of trace: (10, "/home/harshraj/COALESCE-Hashed-Perceptron-Cache-Replacement-Policy/simulator/traces/canneal_big2.champsimtrace")
*** Reached end of trace: (6, "/home/harshraj/COALESCE-Hashed-Perceptron-Cache-Replacement-Policy/simulator/traces/canneal_big2.champsimtrace")
*** Reached end of trace: (14, "/home/harshraj/COALESCE-Hashed-Perceptron-Cache-Replacement-Policy/simulator/traces/canneal_big2.champsimtrace")
Heartbeat CPU 10 instructions: 70000001 cycles: 17503606 heartbeat IPC: 4 cumulative IPC: 3.999 (Simulation time: 01 hr 56 min 13 sec)
Heartbeat CPU 6 instructions: 70000001 cycles: 17503608 heartbeat IPC: 4 cumulative IPC: 3.999 (Simulation time: 01 hr 56 min 13 sec)
Heartbeat CPU 14 instructions: 70000001 cycles: 17503612 heartbeat IPC: 4 cumulative IPC: 3.999 (Simulation time: 01 hr 56 min 13 sec)
*** Reached end of trace: (13, "/home/harshraj/COALESCE-Hashed-Perceptron-Cache-Replacement-Policy/simulator/traces/canneal_big1.champsimtrace")
*** Reached end of trace: (1, "/home/harshraj/COALESCE-Hashed-Perceptron-Cache-Replacement-Policy/simulator/traces/canneal_big1.champsimtrace")
Heartbeat CPU 13 instructions: 30000004 cycles: 18387220 heartbeat IPC: 1.76 cumulative IPC: 1.632 (Simulation time: 02 hr 01 min 40 sec)
Heartbeat CPU 1 instructions: 30000004 cycles: 18387221 heartbeat IPC: 1.76 cumulative IPC: 1.632 (Simulation time: 02 hr 01 min 40 sec)
*** Reached end of trace: (9, "/home/harshraj/COALESCE-Hashed-Perceptron-Cache-Replacement-Policy/simulator/traces/canneal_big1.champsimtrace")
Heartbeat CPU 9 instructions: 30000004 cycles: 18390865 heartbeat IPC: 1.759 cumulative IPC: 1.631 (Simulation time: 02 hr 01 min 42 sec)
*** Reached end of trace: (5, "/home/harshraj/COALESCE-Hashed-Perceptron-Cache-Replacement-Policy/simulator/traces/canneal_big1.champsimtrace")
Heartbeat CPU 5 instructions: 30000004 cycles: 18426133 heartbeat IPC: 1.755 cumulative IPC: 1.628 (Simulation time: 02 hr 01 min 59 sec)
*** Reached end of trace: (11, "/home/harshraj/COALESCE-Hashed-Perceptron-Cache-Replacement-Policy/simulator/traces/canneal_big3.champsimtrace")
*** Reached end of trace: (2, "/home/harshraj/COALESCE-Hashed-Perceptron-Cache-Replacement-Policy/simulator/traces/canneal_big2.champsimtrace")
*** Reached end of trace: (7, "/home/harshraj/COALESCE-Hashed-Perceptron-Cache-Replacement-Policy/simulator/traces/canneal_big3.champsimtrace")
*** Reached end of trace: (3, "/home/harshraj/COALESCE-Hashed-Perceptron-Cache-Replacement-Policy/simulator/traces/canneal_big3.champsimtrace")
*** Reached end of trace: (15, "/home/harshraj/COALESCE-Hashed-Perceptron-Cache-Replacement-Policy/simulator/traces/canneal_big3.champsimtrace")
*** Reached end of trace: (10, "/home/harshraj/COALESCE-Hashed-Perceptron-Cache-Replacement-Policy/simulator/traces/canneal_big2.champsimtrace")
*** Reached end of trace: (6, "/home/harshraj/COALESCE-Hashed-Perceptron-Cache-Replacement-Policy/simulator/traces/canneal_big2.champsimtrace")
*** Reached end of trace: (14, "/home/harshraj/COALESCE-Hashed-Perceptron-Cache-Replacement-Policy/simulator/traces/canneal_big2.champsimtrace")
*** Reached end of trace: (8, "/home/harshraj/COALESCE-Hashed-Perceptron-Cache-Replacement-Policy/simulator/traces/canneal_big0.champsimtrace")
Warmup finished CPU 8 instructions: 50000000 cycles: 19333935 cumulative IPC: 2.586 (Simulation time: 02 hr 08 min 31 sec)
Heartbeat CPU 8 instructions: 50000015 cycles: 19333938 heartbeat IPC: 2.603 cumulative IPC: 2.586 (Simulation time: 02 hr 08 min 31 sec)
*** Reached end of trace: (12, "/home/harshraj/COALESCE-Hashed-Perceptron-Cache-Replacement-Policy/simulator/traces/canneal_big0.champsimtrace")
*** Reached end of trace: (0, "/home/harshraj/COALESCE-Hashed-Perceptron-Cache-Replacement-Policy/simulator/traces/canneal_big0.champsimtrace")
Warmup finished CPU 12 instructions: 50000000 cycles: 19345209 cumulative IPC: 2.585 (Simulation time: 02 hr 08 min 36 sec)
Warmup finished CPU 0 instructions: 50000000 cycles: 19345209 cumulative IPC: 2.585 (Simulation time: 02 hr 08 min 36 sec)
Heartbeat CPU 0 instructions: 50000015 cycles: 19345212 heartbeat IPC: 2.601 cumulative IPC: 2.585 (Simulation time: 02 hr 08 min 36 sec)
Heartbeat CPU 12 instructions: 50000015 cycles: 19345212 heartbeat IPC: 2.601 cumulative IPC: 2.585 (Simulation time: 02 hr 08 min 36 sec)
*** Reached end of trace: (4, "/home/harshraj/COALESCE-Hashed-Perceptron-Cache-Replacement-Policy/simulator/traces/canneal_big0.champsimtrace")
Warmup finished CPU 4 instructions: 50000000 cycles: 19390178 cumulative IPC: 2.579 (Simulation time: 02 hr 08 min 57 sec)
Heartbeat CPU 4 instructions: 50000015 cycles: 19390181 heartbeat IPC: 2.595 cumulative IPC: 2.579 (Simulation time: 02 hr 08 min 57 sec)
*** Reached end of trace: (11, "/home/harshraj/COALESCE-Hashed-Perceptron-Cache-Replacement-Policy/simulator/traces/canneal_big3.champsimtrace")
Heartbeat CPU 11 instructions: 80000001 cycles: 20003263 heartbeat IPC: 4 cumulative IPC: 3.999 (Simulation time: 02 hr 13 min 36 sec)
*** Reached end of trace: (2, "/home/harshraj/COALESCE-Hashed-Perceptron-Cache-Replacement-Policy/simulator/traces/canneal_big2.champsimtrace")
*** Reached end of trace: (7, "/home/harshraj/COALESCE-Hashed-Perceptron-Cache-Replacement-Policy/simulator/traces/canneal_big3.champsimtrace")
*** Reached end of trace: (3, "/home/harshraj/COALESCE-Hashed-Perceptron-Cache-Replacement-Policy/simulator/traces/canneal_big3.champsimtrace")
*** Reached end of trace: (15, "/home/harshraj/COALESCE-Hashed-Perceptron-Cache-Replacement-Policy/simulator/traces/canneal_big3.champsimtrace")
Heartbeat CPU 2 instructions: 80000001 cycles: 20003412 heartbeat IPC: 4 cumulative IPC: 3.999 (Simulation time: 02 hr 13 min 36 sec)
Heartbeat CPU 7 instructions: 80000001 cycles: 20003441 heartbeat IPC: 4 cumulative IPC: 3.999 (Simulation time: 02 hr 13 min 36 sec)
Heartbeat CPU 3 instructions: 80000001 cycles: 20003453 heartbeat IPC: 4 cumulative IPC: 3.999 (Simulation time: 02 hr 13 min 36 sec)
Heartbeat CPU 15 instructions: 80000001 cycles: 20003461 heartbeat IPC: 4 cumulative IPC: 3.999 (Simulation time: 02 hr 13 min 36 sec)
*** Reached end of trace: (10, "/home/harshraj/COALESCE-Hashed-Perceptron-Cache-Replacement-Policy/simulator/traces/canneal_big2.champsimtrace")
*** Reached end of trace: (6, "/home/harshraj/COALESCE-Hashed-Perceptron-Cache-Replacement-Policy/simulator/traces/canneal_big2.champsimtrace")
*** Reached end of trace: (14, "/home/harshraj/COALESCE-Hashed-Perceptron-Cache-Replacement-Policy/simulator/traces/canneal_big2.champsimtrace")
Heartbeat CPU 10 instructions: 80000001 cycles: 20003606 heartbeat IPC: 4 cumulative IPC: 3.999 (Simulation time: 02 hr 13 min 36 sec)
Heartbeat CPU 6 instructions: 80000001 cycles: 20003608 heartbeat IPC: 4 cumulative IPC: 3.999 (Simulation time: 02 hr 13 min 36 sec)
Heartbeat CPU 14 instructions: 80000001 cycles: 20003612 heartbeat IPC: 4 cumulative IPC: 3.999 (Simulation time: 02 hr 13 min 36 sec)
*** Reached end of trace: (13, "/home/harshraj/COALESCE-Hashed-Perceptron-Cache-Replacement-Policy/simulator/traces/canneal_big1.champsimtrace")
*** Reached end of trace: (1, "/home/harshraj/COALESCE-Hashed-Perceptron-Cache-Replacement-Policy/simulator/traces/canneal_big1.champsimtrace")
*** Reached end of trace: (9, "/home/harshraj/COALESCE-Hashed-Perceptron-Cache-Replacement-Policy/simulator/traces/canneal_big1.champsimtrace")
*** Reached end of trace: (11, "/home/harshraj/COALESCE-Hashed-Perceptron-Cache-Replacement-Policy/simulator/traces/canneal_big3.champsimtrace")
*** Reached end of trace: (2, "/home/harshraj/COALESCE-Hashed-Perceptron-Cache-Replacement-Policy/simulator/traces/canneal_big2.champsimtrace")
*** Reached end of trace: (7, "/home/harshraj/COALESCE-Hashed-Perceptron-Cache-Replacement-Policy/simulator/traces/canneal_big3.champsimtrace")
*** Reached end of trace: (3, "/home/harshraj/COALESCE-Hashed-Perceptron-Cache-Replacement-Policy/simulator/traces/canneal_big3.champsimtrace")
*** Reached end of trace: (15, "/home/harshraj/COALESCE-Hashed-Perceptron-Cache-Replacement-Policy/simulator/traces/canneal_big3.champsimtrace")
*** Reached end of trace: (10, "/home/harshraj/COALESCE-Hashed-Perceptron-Cache-Replacement-Policy/simulator/traces/canneal_big2.champsimtrace")
*** Reached end of trace: (6, "/home/harshraj/COALESCE-Hashed-Perceptron-Cache-Replacement-Policy/simulator/traces/canneal_big2.champsimtrace")
*** Reached end of trace: (14, "/home/harshraj/COALESCE-Hashed-Perceptron-Cache-Replacement-Policy/simulator/traces/canneal_big2.champsimtrace")
*** Reached end of trace: (8, "/home/harshraj/COALESCE-Hashed-Perceptron-Cache-Replacement-Policy/simulator/traces/canneal_big0.champsimtrace")
*** Reached end of trace: (12, "/home/harshraj/COALESCE-Hashed-Perceptron-Cache-Replacement-Policy/simulator/traces/canneal_big0.champsimtrace")
*** Reached end of trace: (0, "/home/harshraj/COALESCE-Hashed-Perceptron-Cache-Replacement-Policy/simulator/traces/canneal_big0.champsimtrace")
*** Reached end of trace: (5, "/home/harshraj/COALESCE-Hashed-Perceptron-Cache-Replacement-Policy/simulator/traces/canneal_big1.champsimtrace")
*** Reached end of trace: (4, "/home/harshraj/COALESCE-Hashed-Perceptron-Cache-Replacement-Policy/simulator/traces/canneal_big0.champsimtrace")
*** Reached end of trace: (11, "/home/harshraj/COALESCE-Hashed-Perceptron-Cache-Replacement-Policy/simulator/traces/canneal_big3.champsimtrace")
Heartbeat CPU 11 instructions: 90000001 cycles: 22503263 heartbeat IPC: 4 cumulative IPC: 3.999 (Simulation time: 02 hr 29 min 26 sec)
*** Reached end of trace: (2, "/home/harshraj/COALESCE-Hashed-Perceptron-Cache-Replacement-Policy/simulator/traces/canneal_big2.champsimtrace")
*** Reached end of trace: (7, "/home/harshraj/COALESCE-Hashed-Perceptron-Cache-Replacement-Policy/simulator/traces/canneal_big3.champsimtrace")
*** Reached end of trace: (3, "/home/harshraj/COALESCE-Hashed-Perceptron-Cache-Replacement-Policy/simulator/traces/canneal_big3.champsimtrace")
*** Reached end of trace: (15, "/home/harshraj/COALESCE-Hashed-Perceptron-Cache-Replacement-Policy/simulator/traces/canneal_big3.champsimtrace")
Heartbeat CPU 2 instructions: 90000001 cycles: 22503412 heartbeat IPC: 4 cumulative IPC: 3.999 (Simulation time: 02 hr 29 min 26 sec)
Heartbeat CPU 7 instructions: 90000001 cycles: 22503441 heartbeat IPC: 4 cumulative IPC: 3.999 (Simulation time: 02 hr 29 min 26 sec)
Heartbeat CPU 3 instructions: 90000001 cycles: 22503453 heartbeat IPC: 4 cumulative IPC: 3.999 (Simulation time: 02 hr 29 min 26 sec)
Heartbeat CPU 15 instructions: 90000001 cycles: 22503461 heartbeat IPC: 4 cumulative IPC: 3.999 (Simulation time: 02 hr 29 min 26 sec)
*** Reached end of trace: (10, "/home/harshraj/COALESCE-Hashed-Perceptron-Cache-Replacement-Policy/simulator/traces/canneal_big2.champsimtrace")
*** Reached end of trace: (6, "/home/harshraj/COALESCE-Hashed-Perceptron-Cache-Replacement-Policy/simulator/traces/canneal_big2.champsimtrace")
*** Reached end of trace: (14, "/home/harshraj/COALESCE-Hashed-Perceptron-Cache-Replacement-Policy/simulator/traces/canneal_big2.champsimtrace")
Heartbeat CPU 10 instructions: 90000001 cycles: 22503606 heartbeat IPC: 4 cumulative IPC: 3.999 (Simulation time: 02 hr 29 min 26 sec)
Heartbeat CPU 6 instructions: 90000001 cycles: 22503608 heartbeat IPC: 4 cumulative IPC: 3.999 (Simulation time: 02 hr 29 min 26 sec)
Heartbeat CPU 14 instructions: 90000001 cycles: 22503612 heartbeat IPC: 4 cumulative IPC: 3.999 (Simulation time: 02 hr 29 min 26 sec)
*** Reached end of trace: (8, "/home/harshraj/COALESCE-Hashed-Perceptron-Cache-Replacement-Policy/simulator/traces/canneal_big0.champsimtrace")
Heartbeat CPU 8 instructions: 60000018 cycles: 23175679 heartbeat IPC: 2.603 cumulative IPC: 2.589 (Simulation time: 02 hr 33 min 53 sec)
*** Reached end of trace: (12, "/home/harshraj/COALESCE-Hashed-Perceptron-Cache-Replacement-Policy/simulator/traces/canneal_big0.champsimtrace")
Heartbeat CPU 12 instructions: 60000018 cycles: 23189786 heartbeat IPC: 2.601 cumulative IPC: 2.587 (Simulation time: 02 hr 33 min 59 sec)
*** Reached end of trace: (0, "/home/harshraj/COALESCE-Hashed-Perceptron-Cache-Replacement-Policy/simulator/traces/canneal_big0.champsimtrace")
Heartbeat CPU 0 instructions: 60000018 cycles: 23190089 heartbeat IPC: 2.601 cumulative IPC: 2.587 (Simulation time: 02 hr 33 min 59 sec)
*** Reached end of trace: (4, "/home/harshraj/COALESCE-Hashed-Perceptron-Cache-Replacement-Policy/simulator/traces/canneal_big0.champsimtrace")
Heartbeat CPU 4 instructions: 60000018 cycles: 23244244 heartbeat IPC: 2.595 cumulative IPC: 2.581 (Simulation time: 02 hr 34 min 24 sec)
*** Reached end of trace: (11, "/home/harshraj/COALESCE-Hashed-Perceptron-Cache-Replacement-Policy/simulator/traces/canneal_big3.champsimtrace")
*** Reached end of trace: (2, "/home/harshraj/COALESCE-Hashed-Perceptron-Cache-Replacement-Policy/simulator/traces/canneal_big2.champsimtrace")
*** Reached end of trace: (7, "/home/harshraj/COALESCE-Hashed-Perceptron-Cache-Replacement-Policy/simulator/traces/canneal_big3.champsimtrace")
*** Reached end of trace: (3, "/home/harshraj/COALESCE-Hashed-Perceptron-Cache-Replacement-Policy/simulator/traces/canneal_big3.champsimtrace")
*** Reached end of trace: (15, "/home/harshraj/COALESCE-Hashed-Perceptron-Cache-Replacement-Policy/simulator/traces/canneal_big3.champsimtrace")
*** Reached end of trace: (10, "/home/harshraj/COALESCE-Hashed-Perceptron-Cache-Replacement-Policy/simulator/traces/canneal_big2.champsimtrace")
*** Reached end of trace: (6, "/home/harshraj/COALESCE-Hashed-Perceptron-Cache-Replacement-Policy/simulator/traces/canneal_big2.champsimtrace")
*** Reached end of trace: (14, "/home/harshraj/COALESCE-Hashed-Perceptron-Cache-Replacement-Policy/simulator/traces/canneal_big2.champsimtrace")
*** Reached end of trace: (13, "/home/harshraj/COALESCE-Hashed-Perceptron-Cache-Replacement-Policy/simulator/traces/canneal_big1.champsimtrace")
*** Reached end of trace: (1, "/home/harshraj/COALESCE-Hashed-Perceptron-Cache-Replacement-Policy/simulator/traces/canneal_big1.champsimtrace")
Heartbeat CPU 1 instructions: 40000006 cycles: 24069502 heartbeat IPC: 1.76 cumulative IPC: 1.662 (Simulation time: 02 hr 40 min 37 sec)
Heartbeat CPU 13 instructions: 40000006 cycles: 24069502 heartbeat IPC: 1.76 cumulative IPC: 1.662 (Simulation time: 02 hr 40 min 37 sec)
*** Reached end of trace: (9, "/home/harshraj/COALESCE-Hashed-Perceptron-Cache-Replacement-Policy/simulator/traces/canneal_big1.champsimtrace")
Heartbeat CPU 9 instructions: 40000006 cycles: 24075105 heartbeat IPC: 1.759 cumulative IPC: 1.661 (Simulation time: 02 hr 40 min 39 sec)
*** Reached end of trace: (5, "/home/harshraj/COALESCE-Hashed-Perceptron-Cache-Replacement-Policy/simulator/traces/canneal_big1.champsimtrace")
Heartbeat CPU 5 instructions: 40000006 cycles: 24125254 heartbeat IPC: 1.755 cumulative IPC: 1.658 (Simulation time: 02 hr 41 min 02 sec)
*** Reached end of trace: (11, "/home/harshraj/COALESCE-Hashed-Perceptron-Cache-Replacement-Policy/simulator/traces/canneal_big3.champsimtrace")
Heartbeat CPU 11 instructions: 100000001 cycles: 25003263 heartbeat IPC: 4 cumulative IPC: 3.999 (Simulation time: 02 hr 47 min 23 sec)
*** Reached end of trace: (2, "/home/harshraj/COALESCE-Hashed-Perceptron-Cache-Replacement-Policy/simulator/traces/canneal_big2.champsimtrace")
*** Reached end of trace: (7, "/home/harshraj/COALESCE-Hashed-Perceptron-Cache-Replacement-Policy/simulator/traces/canneal_big3.champsimtrace")
*** Reached end of trace: (3, "/home/harshraj/COALESCE-Hashed-Perceptron-Cache-Replacement-Policy/simulator/traces/canneal_big3.champsimtrace")
*** Reached end of trace: (15, "/home/harshraj/COALESCE-Hashed-Perceptron-Cache-Replacement-Policy/simulator/traces/canneal_big3.champsimtrace")
Heartbeat CPU 2 instructions: 100000001 cycles: 25003412 heartbeat IPC: 4 cumulative IPC: 3.999 (Simulation time: 02 hr 47 min 23 sec)
Heartbeat CPU 7 instructions: 100000001 cycles: 25003441 heartbeat IPC: 4 cumulative IPC: 3.999 (Simulation time: 02 hr 47 min 23 sec)
Heartbeat CPU 3 instructions: 100000001 cycles: 25003453 heartbeat IPC: 4 cumulative IPC: 3.999 (Simulation time: 02 hr 47 min 23 sec)
Heartbeat CPU 15 instructions: 100000001 cycles: 25003461 heartbeat IPC: 4 cumulative IPC: 3.999 (Simulation time: 02 hr 47 min 23 sec)
*** Reached end of trace: (10, "/home/harshraj/COALESCE-Hashed-Perceptron-Cache-Replacement-Policy/simulator/traces/canneal_big2.champsimtrace")
*** Reached end of trace: (6, "/home/harshraj/COALESCE-Hashed-Perceptron-Cache-Replacement-Policy/simulator/traces/canneal_big2.champsimtrace")
*** Reached end of trace: (14, "/home/harshraj/COALESCE-Hashed-Perceptron-Cache-Replacement-Policy/simulator/traces/canneal_big2.champsimtrace")
Heartbeat CPU 10 instructions: 100000001 cycles: 25003606 heartbeat IPC: 4 cumulative IPC: 3.999 (Simulation time: 02 hr 47 min 23 sec)
Heartbeat CPU 6 instructions: 100000001 cycles: 25003608 heartbeat IPC: 4 cumulative IPC: 3.999 (Simulation time: 02 hr 47 min 23 sec)
Heartbeat CPU 14 instructions: 100000001 cycles: 25003612 heartbeat IPC: 4 cumulative IPC: 3.999 (Simulation time: 02 hr 47 min 23 sec)
*** Reached end of trace: (8, "/home/harshraj/COALESCE-Hashed-Perceptron-Cache-Replacement-Policy/simulator/traces/canneal_big0.champsimtrace")
*** Reached end of trace: (12, "/home/harshraj/COALESCE-Hashed-Perceptron-Cache-Replacement-Policy/simulator/traces/canneal_big0.champsimtrace")
*** Reached end of trace: (0, "/home/harshraj/COALESCE-Hashed-Perceptron-Cache-Replacement-Policy/simulator/traces/canneal_big0.champsimtrace")
*** Reached end of trace: (4, "/home/harshraj/COALESCE-Hashed-Perceptron-Cache-Replacement-Policy/simulator/traces/canneal_big0.champsimtrace")
*** Reached end of trace: (11, "/home/harshraj/COALESCE-Hashed-Perceptron-Cache-Replacement-Policy/simulator/traces/canneal_big3.champsimtrace")
*** Reached end of trace: (2, "/home/harshraj/COALESCE-Hashed-Perceptron-Cache-Replacement-Policy/simulator/traces/canneal_big2.champsimtrace")
*** Reached end of trace: (7, "/home/harshraj/COALESCE-Hashed-Perceptron-Cache-Replacement-Policy/simulator/traces/canneal_big3.champsimtrace")
*** Reached end of trace: (3, "/home/harshraj/COALESCE-Hashed-Perceptron-Cache-Replacement-Policy/simulator/traces/canneal_big3.champsimtrace")
*** Reached end of trace: (15, "/home/harshraj/COALESCE-Hashed-Perceptron-Cache-Replacement-Policy/simulator/traces/canneal_big3.champsimtrace")
*** Reached end of trace: (10, "/home/harshraj/COALESCE-Hashed-Perceptron-Cache-Replacement-Policy/simulator/traces/canneal_big2.champsimtrace")
*** Reached end of trace: (6, "/home/harshraj/COALESCE-Hashed-Perceptron-Cache-Replacement-Policy/simulator/traces/canneal_big2.champsimtrace")
*** Reached end of trace: (14, "/home/harshraj/COALESCE-Hashed-Perceptron-Cache-Replacement-Policy/simulator/traces/canneal_big2.champsimtrace")
*** Reached end of trace: (13, "/home/harshraj/COALESCE-Hashed-Perceptron-Cache-Replacement-Policy/simulator/traces/canneal_big1.champsimtrace")
*** Reached end of trace: (1, "/home/harshraj/COALESCE-Hashed-Perceptron-Cache-Replacement-Policy/simulator/traces/canneal_big1.champsimtrace")
*** Reached end of trace: (9, "/home/harshraj/COALESCE-Hashed-Perceptron-Cache-Replacement-Policy/simulator/traces/canneal_big1.champsimtrace")
*** Reached end of trace: (5, "/home/harshraj/COALESCE-Hashed-Perceptron-Cache-Replacement-Policy/simulator/traces/canneal_big1.champsimtrace")
*** Reached end of trace: (8, "/home/harshraj/COALESCE-Hashed-Perceptron-Cache-Replacement-Policy/simulator/traces/canneal_big0.champsimtrace")
Heartbeat CPU 8 instructions: 70000021 cycles: 27017695 heartbeat IPC: 2.603 cumulative IPC: 2.591 (Simulation time: 02 hr 59 min 40 sec)
*** Reached end of trace: (12, "/home/harshraj/COALESCE-Hashed-Perceptron-Cache-Replacement-Policy/simulator/traces/canneal_big0.champsimtrace")
*** Reached end of trace: (0, "/home/harshraj/COALESCE-Hashed-Perceptron-Cache-Replacement-Policy/simulator/traces/canneal_big0.champsimtrace")
Heartbeat CPU 0 instructions: 70000021 cycles: 27035019 heartbeat IPC: 2.601 cumulative IPC: 2.589 (Simulation time: 02 hr 59 min 45 sec)
Heartbeat CPU 12 instructions: 70000021 cycles: 27035019 heartbeat IPC: 2.601 cumulative IPC: 2.589 (Simulation time: 02 hr 59 min 45 sec)
*** Reached end of trace: (4, "/home/harshraj/COALESCE-Hashed-Perceptron-Cache-Replacement-Policy/simulator/traces/canneal_big0.champsimtrace")
Heartbeat CPU 4 instructions: 70000021 cycles: 27098858 heartbeat IPC: 2.594 cumulative IPC: 2.583 (Simulation time: 03 hr 00 min 06 sec)
*** Reached end of trace: (11, "/home/harshraj/COALESCE-Hashed-Perceptron-Cache-Replacement-Policy/simulator/traces/canneal_big3.champsimtrace")
Heartbeat CPU 11 instructions: 110000001 cycles: 27503263 heartbeat IPC: 4 cumulative IPC: 4 (Simulation time: 03 hr 02 min 14 sec)
*** Reached end of trace: (2, "/home/harshraj/COALESCE-Hashed-Perceptron-Cache-Replacement-Policy/simulator/traces/canneal_big2.champsimtrace")
*** Reached end of trace: (7, "/home/harshraj/COALESCE-Hashed-Perceptron-Cache-Replacement-Policy/simulator/traces/canneal_big3.champsimtrace")
*** Reached end of trace: (3, "/home/harshraj/COALESCE-Hashed-Perceptron-Cache-Replacement-Policy/simulator/traces/canneal_big3.champsimtrace")
*** Reached end of trace: (15, "/home/harshraj/COALESCE-Hashed-Perceptron-Cache-Replacement-Policy/simulator/traces/canneal_big3.champsimtrace")
Heartbeat CPU 2 instructions: 110000001 cycles: 27503412 heartbeat IPC: 4 cumulative IPC: 4 (Simulation time: 03 hr 02 min 14 sec)
Heartbeat CPU 7 instructions: 110000001 cycles: 27503441 heartbeat IPC: 4 cumulative IPC: 3.999 (Simulation time: 03 hr 02 min 14 sec)
Heartbeat CPU 3 instructions: 110000001 cycles: 27503453 heartbeat IPC: 4 cumulative IPC: 3.999 (Simulation time: 03 hr 02 min 14 sec)
Heartbeat CPU 15 instructions: 110000001 cycles: 27503461 heartbeat IPC: 4 cumulative IPC: 3.999 (Simulation time: 03 hr 02 min 14 sec)
*** Reached end of trace: (10, "/home/harshraj/COALESCE-Hashed-Perceptron-Cache-Replacement-Policy/simulator/traces/canneal_big2.champsimtrace")
*** Reached end of trace: (6, "/home/harshraj/COALESCE-Hashed-Perceptron-Cache-Replacement-Policy/simulator/traces/canneal_big2.champsimtrace")
*** Reached end of trace: (14, "/home/harshraj/COALESCE-Hashed-Perceptron-Cache-Replacement-Policy/simulator/traces/canneal_big2.champsimtrace")
Heartbeat CPU 10 instructions: 110000001 cycles: 27503606 heartbeat IPC: 4 cumulative IPC: 3.999 (Simulation time: 03 hr 02 min 14 sec)
Heartbeat CPU 6 instructions: 110000001 cycles: 27503608 heartbeat IPC: 4 cumulative IPC: 3.999 (Simulation time: 03 hr 02 min 14 sec)
Heartbeat CPU 14 instructions: 110000001 cycles: 27503612 heartbeat IPC: 4 cumulative IPC: 3.999 (Simulation time: 03 hr 02 min 14 sec)
*** Reached end of trace: (11, "/home/harshraj/COALESCE-Hashed-Perceptron-Cache-Replacement-Policy/simulator/traces/canneal_big3.champsimtrace")
*** Reached end of trace: (2, "/home/harshraj/COALESCE-Hashed-Perceptron-Cache-Replacement-Policy/simulator/traces/canneal_big2.champsimtrace")
*** Reached end of trace: (7, "/home/harshraj/COALESCE-Hashed-Perceptron-Cache-Replacement-Policy/simulator/traces/canneal_big3.champsimtrace")
*** Reached end of trace: (3, "/home/harshraj/COALESCE-Hashed-Perceptron-Cache-Replacement-Policy/simulator/traces/canneal_big3.champsimtrace")
*** Reached end of trace: (15, "/home/harshraj/COALESCE-Hashed-Perceptron-Cache-Replacement-Policy/simulator/traces/canneal_big3.champsimtrace")
*** Reached end of trace: (10, "/home/harshraj/COALESCE-Hashed-Perceptron-Cache-Replacement-Policy/simulator/traces/canneal_big2.champsimtrace")
*** Reached end of trace: (6, "/home/harshraj/COALESCE-Hashed-Perceptron-Cache-Replacement-Policy/simulator/traces/canneal_big2.champsimtrace")
*** Reached end of trace: (14, "/home/harshraj/COALESCE-Hashed-Perceptron-Cache-Replacement-Policy/simulator/traces/canneal_big2.champsimtrace")
*** Reached end of trace: (8, "/home/harshraj/COALESCE-Hashed-Perceptron-Cache-Replacement-Policy/simulator/traces/canneal_big0.champsimtrace")
*** Reached end of trace: (12, "/home/harshraj/COALESCE-Hashed-Perceptron-Cache-Replacement-Policy/simulator/traces/canneal_big0.champsimtrace")
*** Reached end of trace: (0, "/home/harshraj/COALESCE-Hashed-Perceptron-Cache-Replacement-Policy/simulator/traces/canneal_big0.champsimtrace")
*** Reached end of trace: (4, "/home/harshraj/COALESCE-Hashed-Perceptron-Cache-Replacement-Policy/simulator/traces/canneal_big0.champsimtrace")
*** Reached end of trace: (13, "/home/harshraj/COALESCE-Hashed-Perceptron-Cache-Replacement-Policy/simulator/traces/canneal_big1.champsimtrace")
*** Reached end of trace: (1, "/home/harshraj/COALESCE-Hashed-Perceptron-Cache-Replacement-Policy/simulator/traces/canneal_big1.champsimtrace")
Warmup finished CPU 13 instructions: 50000000 cycles: 29751070 cumulative IPC: 1.681 (Simulation time: 03 hr 18 min 44 sec)
Warmup finished CPU 1 instructions: 50000000 cycles: 29751070 cumulative IPC: 1.681 (Simulation time: 03 hr 18 min 44 sec)
Heartbeat CPU 13 instructions: 50000008 cycles: 29751088 heartbeat IPC: 1.76 cumulative IPC: 1.681 (Simulation time: 03 hr 18 min 44 sec)
Heartbeat CPU 1 instructions: 50000008 cycles: 29751089 heartbeat IPC: 1.76 cumulative IPC: 1.681 (Simulation time: 03 hr 18 min 44 sec)
*** Reached end of trace: (9, "/home/harshraj/COALESCE-Hashed-Perceptron-Cache-Replacement-Policy/simulator/traces/canneal_big1.champsimtrace")
Warmup finished CPU 9 instructions: 50000000 cycles: 29759900 cumulative IPC: 1.68 (Simulation time: 03 hr 18 min 48 sec)
Heartbeat CPU 9 instructions: 50000008 cycles: 29759917 heartbeat IPC: 1.759 cumulative IPC: 1.68 (Simulation time: 03 hr 18 min 48 sec)
*** Reached end of trace: (5, "/home/harshraj/COALESCE-Hashed-Perceptron-Cache-Replacement-Policy/simulator/traces/canneal_big1.champsimtrace")
Warmup finished CPU 5 instructions: 50000000 cycles: 29825463 cumulative IPC: 1.676 (Simulation time: 03 hr 19 min 16 sec)
Warmup complete CPU 9 instructions: 50111014 cycles: 29825463 cumulative IPC: 1.68 (Simulation time: 03 hr 19 min 16 sec)
Warmup complete CPU 8 instructions: 77495749 cycles: 29825463 cumulative IPC: 2.598 (Simulation time: 03 hr 19 min 16 sec)
Warmup complete CPU 7 instructions: 119288089 cycles: 29825463 cumulative IPC: 4 (Simulation time: 03 hr 19 min 16 sec)
Warmup complete CPU 6 instructions: 119287421 cycles: 29825463 cumulative IPC: 4 (Simulation time: 03 hr 19 min 16 sec)
Warmup complete CPU 5 instructions: 50000000 cycles: 29825463 cumulative IPC: 1.676 (Simulation time: 03 hr 19 min 16 sec)
Warmup complete CPU 4 instructions: 77281609 cycles: 29825463 cumulative IPC: 2.591 (Simulation time: 03 hr 19 min 16 sec)
Warmup complete CPU 3 instructions: 119288041 cycles: 29825463 cumulative IPC: 4 (Simulation time: 03 hr 19 min 16 sec)
Warmup complete CPU 2 instructions: 119288205 cycles: 29825463 cumulative IPC: 4 (Simulation time: 03 hr 19 min 16 sec)
Warmup complete CPU 15 instructions: 119288009 cycles: 29825463 cumulative IPC: 4 (Simulation time: 03 hr 19 min 16 sec)
Warmup complete CPU 14 instructions: 119287405 cycles: 29825463 cumulative IPC: 4 (Simulation time: 03 hr 19 min 16 sec)
Warmup complete CPU 13 instructions: 50123254 cycles: 29825463 cumulative IPC: 1.681 (Simulation time: 03 hr 19 min 16 sec)
Warmup complete CPU 12 instructions: 77450599 cycles: 29825463 cumulative IPC: 2.597 (Simulation time: 03 hr 19 min 16 sec)
Warmup complete CPU 11 instructions: 119288801 cycles: 29825463 cumulative IPC: 4 (Simulation time: 03 hr 19 min 16 sec)
Warmup complete CPU 10 instructions: 119287429 cycles: 29825463 cumulative IPC: 4 (Simulation time: 03 hr 19 min 16 sec)
Warmup complete CPU 1 instructions: 50123254 cycles: 29825463 cumulative IPC: 1.681 (Simulation time: 03 hr 19 min 16 sec)
Warmup complete CPU 0 instructions: 77450599 cycles: 29825463 cumulative IPC: 2.597 (Simulation time: 03 hr 19 min 16 sec)
Heartbeat CPU 5 instructions: 50000008 cycles: 29825702 heartbeat IPC: 1.754 cumulative IPC: 0.03347 (Simulation time: 03 hr 19 min 16 sec)
*** Reached end of trace: (11, "/home/harshraj/COALESCE-Hashed-Perceptron-Cache-Replacement-Policy/simulator/traces/canneal_big3.champsimtrace")
Heartbeat CPU 11 instructions: 120000001 cycles: 30003263 heartbeat IPC: 4 cumulative IPC: 4 (Simulation time: 03 hr 20 min 29 sec)
*** Reached end of trace: (2, "/home/harshraj/COALESCE-Hashed-Perceptron-Cache-Replacement-Policy/simulator/traces/canneal_big2.champsimtrace")
*** Reached end of trace: (7, "/home/harshraj/COALESCE-Hashed-Perceptron-Cache-Replacement-Policy/simulator/traces/canneal_big3.champsimtrace")
*** Reached end of trace: (3, "/home/harshraj/COALESCE-Hashed-Perceptron-Cache-Replacement-Policy/simulator/traces/canneal_big3.champsimtrace")
*** Reached end of trace: (15, "/home/harshraj/COALESCE-Hashed-Perceptron-Cache-Replacement-Policy/simulator/traces/canneal_big3.champsimtrace")
Heartbeat CPU 2 instructions: 120000001 cycles: 30003412 heartbeat IPC: 4 cumulative IPC: 4 (Simulation time: 03 hr 20 min 29 sec)
Heartbeat CPU 7 instructions: 120000001 cycles: 30003441 heartbeat IPC: 4 cumulative IPC: 4 (Simulation time: 03 hr 20 min 29 sec)
Heartbeat CPU 3 instructions: 120000001 cycles: 30003453 heartbeat IPC: 4 cumulative IPC: 4 (Simulation time: 03 hr 20 min 29 sec)
Heartbeat CPU 15 instructions: 120000001 cycles: 30003461 heartbeat IPC: 4 cumulative IPC: 4 (Simulation time: 03 hr 20 min 29 sec)
*** Reached end of trace: (10, "/home/harshraj/COALESCE-Hashed-Perceptron-Cache-Replacement-Policy/simulator/traces/canneal_big2.champsimtrace")
*** Reached end of trace: (6, "/home/harshraj/COALESCE-Hashed-Perceptron-Cache-Replacement-Policy/simulator/traces/canneal_big2.champsimtrace")
*** Reached end of trace: (14, "/home/harshraj/COALESCE-Hashed-Perceptron-Cache-Replacement-Policy/simulator/traces/canneal_big2.champsimtrace")
Heartbeat CPU 10 instructions: 120000001 cycles: 30003606 heartbeat IPC: 4 cumulative IPC: 4 (Simulation time: 03 hr 20 min 29 sec)
Heartbeat CPU 6 instructions: 120000001 cycles: 30003608 heartbeat IPC: 4 cumulative IPC: 4 (Simulation time: 03 hr 20 min 29 sec)
Heartbeat CPU 14 instructions: 120000001 cycles: 30003612 heartbeat IPC: 4 cumulative IPC: 4 (Simulation time: 03 hr 20 min 29 sec)
*** Reached end of trace: (12, "/home/harshraj/COALESCE-Hashed-Perceptron-Cache-Replacement-Policy/simulator/traces/canneal_big0.champsimtrace")
*** Reached end of trace: (0, "/home/harshraj/COALESCE-Hashed-Perceptron-Cache-Replacement-Policy/simulator/traces/canneal_big0.champsimtrace")
*** Reached end of trace: (8, "/home/harshraj/COALESCE-Hashed-Perceptron-Cache-Replacement-Policy/simulator/traces/canneal_big0.champsimtrace")
Heartbeat CPU 0 instructions: 80000024 cycles: 31041345 heartbeat IPC: 2.496 cumulative IPC: 2.097 (Simulation time: 03 hr 27 min 45 sec)
Heartbeat CPU 12 instructions: 80000024 cycles: 31041345 heartbeat IPC: 2.496 cumulative IPC: 2.097 (Simulation time: 03 hr 27 min 45 sec)
Heartbeat CPU 8 instructions: 80000024 cycles: 31041346 heartbeat IPC: 2.485 cumulative IPC: 2.06 (Simulation time: 03 hr 27 min 45 sec)
*** Reached end of trace: (4, "/home/harshraj/COALESCE-Hashed-Perceptron-Cache-Replacement-Policy/simulator/traces/canneal_big0.champsimtrace")
Heartbeat CPU 4 instructions: 80000021 cycles: 31045801 heartbeat IPC: 2.534 cumulative IPC: 2.228 (Simulation time: 03 hr 27 min 47 sec)
*** Reached end of trace: (11, "/home/harshraj/COALESCE-Hashed-Perceptron-Cache-Replacement-Policy/simulator/traces/canneal_big3.champsimtrace")
*** Reached end of trace: (2, "/home/harshraj/COALESCE-Hashed-Perceptron-Cache-Replacement-Policy/simulator/traces/canneal_big2.champsimtrace")
*** Reached end of trace: (7, "/home/harshraj/COALESCE-Hashed-Perceptron-Cache-Replacement-Policy/simulator/traces/canneal_big3.champsimtrace")
*** Reached end of trace: (3, "/home/harshraj/COALESCE-Hashed-Perceptron-Cache-Replacement-Policy/simulator/traces/canneal_big3.champsimtrace")
*** Reached end of trace: (15, "/home/harshraj/COALESCE-Hashed-Perceptron-Cache-Replacement-Policy/simulator/traces/canneal_big3.champsimtrace")
*** Reached end of trace: (10, "/home/harshraj/COALESCE-Hashed-Perceptron-Cache-Replacement-Policy/simulator/traces/canneal_big2.champsimtrace")
*** Reached end of trace: (6, "/home/harshraj/COALESCE-Hashed-Perceptron-Cache-Replacement-Policy/simulator/traces/canneal_big2.champsimtrace")
*** Reached end of trace: (14, "/home/harshraj/COALESCE-Hashed-Perceptron-Cache-Replacement-Policy/simulator/traces/canneal_big2.champsimtrace")
*** Reached end of trace: (11, "/home/harshraj/COALESCE-Hashed-Perceptron-Cache-Replacement-Policy/simulator/traces/canneal_big3.champsimtrace")
Heartbeat CPU 11 instructions: 130000001 cycles: 32503263 heartbeat IPC: 4 cumulative IPC: 4 (Simulation time: 03 hr 36 min 08 sec)
*** Reached end of trace: (2, "/home/harshraj/COALESCE-Hashed-Perceptron-Cache-Replacement-Policy/simulator/traces/canneal_big2.champsimtrace")
*** Reached end of trace: (7, "/home/harshraj/COALESCE-Hashed-Perceptron-Cache-Replacement-Policy/simulator/traces/canneal_big3.champsimtrace")
*** Reached end of trace: (3, "/home/harshraj/COALESCE-Hashed-Perceptron-Cache-Replacement-Policy/simulator/traces/canneal_big3.champsimtrace")
*** Reached end of trace: (15, "/home/harshraj/COALESCE-Hashed-Perceptron-Cache-Replacement-Policy/simulator/traces/canneal_big3.champsimtrace")
Heartbeat CPU 2 instructions: 130000001 cycles: 32503412 heartbeat IPC: 4 cumulative IPC: 4 (Simulation time: 03 hr 36 min 08 sec)
Heartbeat CPU 7 instructions: 130000001 cycles: 32503441 heartbeat IPC: 4 cumulative IPC: 4 (Simulation time: 03 hr 36 min 08 sec)
Heartbeat CPU 3 instructions: 130000001 cycles: 32503453 heartbeat IPC: 4 cumulative IPC: 4 (Simulation time: 03 hr 36 min 08 sec)
Heartbeat CPU 15 instructions: 130000001 cycles: 32503461 heartbeat IPC: 4 cumulative IPC: 4 (Simulation time: 03 hr 36 min 08 sec)
*** Reached end of trace: (10, "/home/harshraj/COALESCE-Hashed-Perceptron-Cache-Replacement-Policy/simulator/traces/canneal_big2.champsimtrace")
*** Reached end of trace: (6, "/home/harshraj/COALESCE-Hashed-Perceptron-Cache-Replacement-Policy/simulator/traces/canneal_big2.champsimtrace")
*** Reached end of trace: (14, "/home/harshraj/COALESCE-Hashed-Perceptron-Cache-Replacement-Policy/simulator/traces/canneal_big2.champsimtrace")
Heartbeat CPU 10 instructions: 130000001 cycles: 32503606 heartbeat IPC: 4 cumulative IPC: 4 (Simulation time: 03 hr 36 min 09 sec)
Heartbeat CPU 6 instructions: 130000001 cycles: 32503608 heartbeat IPC: 4 cumulative IPC: 4 (Simulation time: 03 hr 36 min 09 sec)
Heartbeat CPU 14 instructions: 130000001 cycles: 32503612 heartbeat IPC: 4 cumulative IPC: 4 (Simulation time: 03 hr 36 min 09 sec)
*** Reached end of trace: (12, "/home/harshraj/COALESCE-Hashed-Perceptron-Cache-Replacement-Policy/simulator/traces/canneal_big0.champsimtrace")
*** Reached end of trace: (0, "/home/harshraj/COALESCE-Hashed-Perceptron-Cache-Replacement-Policy/simulator/traces/canneal_big0.champsimtrace")
*** Reached end of trace: (8, "/home/harshraj/COALESCE-Hashed-Perceptron-Cache-Replacement-Policy/simulator/traces/canneal_big0.champsimtrace")
*** Reached end of trace: (4, "/home/harshraj/COALESCE-Hashed-Perceptron-Cache-Replacement-Policy/simulator/traces/canneal_big0.champsimtrace")
*** Reached end of trace: (11, "/home/harshraj/COALESCE-Hashed-Perceptron-Cache-Replacement-Policy/simulator/traces/canneal_big3.champsimtrace")
*** Reached end of trace: (2, "/home/harshraj/COALESCE-Hashed-Perceptron-Cache-Replacement-Policy/simulator/traces/canneal_big2.champsimtrace")
*** Reached end of trace: (7, "/home/harshraj/COALESCE-Hashed-Perceptron-Cache-Replacement-Policy/simulator/traces/canneal_big3.champsimtrace")
*** Reached end of trace: (3, "/home/harshraj/COALESCE-Hashed-Perceptron-Cache-Replacement-Policy/simulator/traces/canneal_big3.champsimtrace")
*** Reached end of trace: (15, "/home/harshraj/COALESCE-Hashed-Perceptron-Cache-Replacement-Policy/simulator/traces/canneal_big3.champsimtrace")
*** Reached end of trace: (10, "/home/harshraj/COALESCE-Hashed-Perceptron-Cache-Replacement-Policy/simulator/traces/canneal_big2.champsimtrace")
*** Reached end of trace: (6, "/home/harshraj/COALESCE-Hashed-Perceptron-Cache-Replacement-Policy/simulator/traces/canneal_big2.champsimtrace")
*** Reached end of trace: (14, "/home/harshraj/COALESCE-Hashed-Perceptron-Cache-Replacement-Policy/simulator/traces/canneal_big2.champsimtrace")
*** Reached end of trace: (11, "/home/harshraj/COALESCE-Hashed-Perceptron-Cache-Replacement-Policy/simulator/traces/canneal_big3.champsimtrace")
Heartbeat CPU 11 instructions: 140000001 cycles: 35003263 heartbeat IPC: 4 cumulative IPC: 4 (Simulation time: 03 hr 52 min 32 sec)
*** Reached end of trace: (2, "/home/harshraj/COALESCE-Hashed-Perceptron-Cache-Replacement-Policy/simulator/traces/canneal_big2.champsimtrace")
*** Reached end of trace: (7, "/home/harshraj/COALESCE-Hashed-Perceptron-Cache-Replacement-Policy/simulator/traces/canneal_big3.champsimtrace")
*** Reached end of trace: (3, "/home/harshraj/COALESCE-Hashed-Perceptron-Cache-Replacement-Policy/simulator/traces/canneal_big3.champsimtrace")
*** Reached end of trace: (15, "/home/harshraj/COALESCE-Hashed-Perceptron-Cache-Replacement-Policy/simulator/traces/canneal_big3.champsimtrace")
Heartbeat CPU 2 instructions: 140000001 cycles: 35003412 heartbeat IPC: 4 cumulative IPC: 4 (Simulation time: 03 hr 52 min 32 sec)
Heartbeat CPU 7 instructions: 140000001 cycles: 35003441 heartbeat IPC: 4 cumulative IPC: 4 (Simulation time: 03 hr 52 min 32 sec)
Heartbeat CPU 3 instructions: 140000001 cycles: 35003453 heartbeat IPC: 4 cumulative IPC: 4 (Simulation time: 03 hr 52 min 32 sec)
Heartbeat CPU 15 instructions: 140000001 cycles: 35003461 heartbeat IPC: 4 cumulative IPC: 4 (Simulation time: 03 hr 52 min 32 sec)
*** Reached end of trace: (10, "/home/harshraj/COALESCE-Hashed-Perceptron-Cache-Replacement-Policy/simulator/traces/canneal_big2.champsimtrace")
*** Reached end of trace: (6, "/home/harshraj/COALESCE-Hashed-Perceptron-Cache-Replacement-Policy/simulator/traces/canneal_big2.champsimtrace")
*** Reached end of trace: (14, "/home/harshraj/COALESCE-Hashed-Perceptron-Cache-Replacement-Policy/simulator/traces/canneal_big2.champsimtrace")
Heartbeat CPU 10 instructions: 140000001 cycles: 35003606 heartbeat IPC: 4 cumulative IPC: 4 (Simulation time: 03 hr 52 min 32 sec)
Heartbeat CPU 6 instructions: 140000001 cycles: 35003608 heartbeat IPC: 4 cumulative IPC: 4 (Simulation time: 03 hr 52 min 32 sec)
Heartbeat CPU 14 instructions: 140000001 cycles: 35003612 heartbeat IPC: 4 cumulative IPC: 4 (Simulation time: 03 hr 52 min 32 sec)
*** Reached end of trace: (12, "/home/harshraj/COALESCE-Hashed-Perceptron-Cache-Replacement-Policy/simulator/traces/canneal_big0.champsimtrace")
*** Reached end of trace: (0, "/home/harshraj/COALESCE-Hashed-Perceptron-Cache-Replacement-Policy/simulator/traces/canneal_big0.champsimtrace")
Heartbeat CPU 0 instructions: 90000027 cycles: 35547972 heartbeat IPC: 2.219 cumulative IPC: 2.193 (Simulation time: 03 hr 55 min 17 sec)
Heartbeat CPU 12 instructions: 90000027 cycles: 35547972 heartbeat IPC: 2.219 cumulative IPC: 2.193 (Simulation time: 03 hr 55 min 17 sec)
*** Reached end of trace: (8, "/home/harshraj/COALESCE-Hashed-Perceptron-Cache-Replacement-Policy/simulator/traces/canneal_big0.champsimtrace")
Heartbeat CPU 8 instructions: 90000027 cycles: 35548767 heartbeat IPC: 2.219 cumulative IPC: 2.185 (Simulation time: 03 hr 55 min 18 sec)
*** Reached end of trace: (4, "/home/harshraj/COALESCE-Hashed-Perceptron-Cache-Replacement-Policy/simulator/traces/canneal_big0.champsimtrace")
Heartbeat CPU 4 instructions: 90000022 cycles: 35565551 heartbeat IPC: 2.213 cumulative IPC: 2.216 (Simulation time: 03 hr 55 min 23 sec)
*** Reached end of trace: (11, "/home/harshraj/COALESCE-Hashed-Perceptron-Cache-Replacement-Policy/simulator/traces/canneal_big3.champsimtrace")
*** Reached end of trace: (2, "/home/harshraj/COALESCE-Hashed-Perceptron-Cache-Replacement-Policy/simulator/traces/canneal_big2.champsimtrace")
*** Reached end of trace: (7, "/home/harshraj/COALESCE-Hashed-Perceptron-Cache-Replacement-Policy/simulator/traces/canneal_big3.champsimtrace")
*** Reached end of trace: (3, "/home/harshraj/COALESCE-Hashed-Perceptron-Cache-Replacement-Policy/simulator/traces/canneal_big3.champsimtrace")
*** Reached end of trace: (15, "/home/harshraj/COALESCE-Hashed-Perceptron-Cache-Replacement-Policy/simulator/traces/canneal_big3.champsimtrace")
*** Reached end of trace: (10, "/home/harshraj/COALESCE-Hashed-Perceptron-Cache-Replacement-Policy/simulator/traces/canneal_big2.champsimtrace")
*** Reached end of trace: (6, "/home/harshraj/COALESCE-Hashed-Perceptron-Cache-Replacement-Policy/simulator/traces/canneal_big2.champsimtrace")
*** Reached end of trace: (14, "/home/harshraj/COALESCE-Hashed-Perceptron-Cache-Replacement-Policy/simulator/traces/canneal_big2.champsimtrace")
*** Reached end of trace: (11, "/home/harshraj/COALESCE-Hashed-Perceptron-Cache-Replacement-Policy/simulator/traces/canneal_big3.champsimtrace")
Heartbeat CPU 11 instructions: 150000001 cycles: 37503263 heartbeat IPC: 4 cumulative IPC: 4 (Simulation time: 04 hr 07 min 14 sec)
*** Reached end of trace: (2, "/home/harshraj/COALESCE-Hashed-Perceptron-Cache-Replacement-Policy/simulator/traces/canneal_big2.champsimtrace")
*** Reached end of trace: (7, "/home/harshraj/COALESCE-Hashed-Perceptron-Cache-Replacement-Policy/simulator/traces/canneal_big3.champsimtrace")
*** Reached end of trace: (3, "/home/harshraj/COALESCE-Hashed-Perceptron-Cache-Replacement-Policy/simulator/traces/canneal_big3.champsimtrace")
*** Reached end of trace: (15, "/home/harshraj/COALESCE-Hashed-Perceptron-Cache-Replacement-Policy/simulator/traces/canneal_big3.champsimtrace")
Heartbeat CPU 2 instructions: 150000001 cycles: 37503412 heartbeat IPC: 4 cumulative IPC: 4 (Simulation time: 04 hr 07 min 14 sec)
Heartbeat CPU 7 instructions: 150000001 cycles: 37503441 heartbeat IPC: 4 cumulative IPC: 4 (Simulation time: 04 hr 07 min 15 sec)
Heartbeat CPU 3 instructions: 150000001 cycles: 37503453 heartbeat IPC: 4 cumulative IPC: 4 (Simulation time: 04 hr 07 min 15 sec)
Heartbeat CPU 15 instructions: 150000001 cycles: 37503461 heartbeat IPC: 4 cumulative IPC: 4 (Simulation time: 04 hr 07 min 15 sec)
*** Reached end of trace: (10, "/home/harshraj/COALESCE-Hashed-Perceptron-Cache-Replacement-Policy/simulator/traces/canneal_big2.champsimtrace")
*** Reached end of trace: (6, "/home/harshraj/COALESCE-Hashed-Perceptron-Cache-Replacement-Policy/simulator/traces/canneal_big2.champsimtrace")
*** Reached end of trace: (14, "/home/harshraj/COALESCE-Hashed-Perceptron-Cache-Replacement-Policy/simulator/traces/canneal_big2.champsimtrace")
Heartbeat CPU 10 instructions: 150000001 cycles: 37503606 heartbeat IPC: 4 cumulative IPC: 4 (Simulation time: 04 hr 07 min 15 sec)
Heartbeat CPU 6 instructions: 150000001 cycles: 37503608 heartbeat IPC: 4 cumulative IPC: 4 (Simulation time: 04 hr 07 min 15 sec)
Heartbeat CPU 14 instructions: 150000001 cycles: 37503612 heartbeat IPC: 4 cumulative IPC: 4 (Simulation time: 04 hr 07 min 15 sec)
*** Reached end of trace: (12, "/home/harshraj/COALESCE-Hashed-Perceptron-Cache-Replacement-Policy/simulator/traces/canneal_big0.champsimtrace")
*** Reached end of trace: (0, "/home/harshraj/COALESCE-Hashed-Perceptron-Cache-Replacement-Policy/simulator/traces/canneal_big0.champsimtrace")
*** Reached end of trace: (8, "/home/harshraj/COALESCE-Hashed-Perceptron-Cache-Replacement-Policy/simulator/traces/canneal_big0.champsimtrace")
*** Reached end of trace: (4, "/home/harshraj/COALESCE-Hashed-Perceptron-Cache-Replacement-Policy/simulator/traces/canneal_big0.champsimtrace")
*** Reached end of trace: (11, "/home/harshraj/COALESCE-Hashed-Perceptron-Cache-Replacement-Policy/simulator/traces/canneal_big3.champsimtrace")
*** Reached end of trace: (2, "/home/harshraj/COALESCE-Hashed-Perceptron-Cache-Replacement-Policy/simulator/traces/canneal_big2.champsimtrace")
*** Reached end of trace: (7, "/home/harshraj/COALESCE-Hashed-Perceptron-Cache-Replacement-Policy/simulator/traces/canneal_big3.champsimtrace")
*** Reached end of trace: (3, "/home/harshraj/COALESCE-Hashed-Perceptron-Cache-Replacement-Policy/simulator/traces/canneal_big3.champsimtrace")
[...]
cpu12->cpu12_L2C TRANSLATION  ACCESS:          0 HIT:          0 MISS:          0 MSHR_MERGE:          0
cpu12->cpu12_L2C PREFETCH REQUESTED:          0 ISSUED:          0 USEFUL:          0 USELESS:          0
cpu12->cpu12_L2C AVERAGE MISS LATENCY: 93.44 cycles
cpu12_L2C COHERENCE INVALIDATIONS:          0
cpu12_L2C COHERENCE WRITE-HIT OTHER-SHARER EVENTS:          0
cpu12->cpu12_L1I TOTAL        ACCESS:  116654075 HIT:  116391300 MISS:     262775 MSHR_MERGE:      74966
cpu12->cpu12_L1I LOAD         ACCESS:  116654075 HIT:  116391300 MISS:     262775 MSHR_MERGE:      74966
cpu12->cpu12_L1I RFO          ACCESS:          0 HIT:          0 MISS:          0 MSHR_MERGE:          0
cpu12->cpu12_L1I PREFETCH     ACCESS:          0 HIT:          0 MISS:          0 MSHR_MERGE:          0
cpu12->cpu12_L1I WRITE        ACCESS:          0 HIT:          0 MISS:          0 MSHR_MERGE:          0
cpu12->cpu12_L1I TRANSLATION  ACCESS:          0 HIT:          0 MISS:          0 MSHR_MERGE:          0
cpu12->cpu12_L1I PREFETCH REQUESTED:          0 ISSUED:          0 USEFUL:          0 USELESS:          0
cpu12->cpu12_L1I AVERAGE MISS LATENCY: 211.8 cycles
cpu12_L1I COHERENCE INVALIDATIONS:          0
cpu12_L1I COHERENCE WRITE-HIT OTHER-SHARER EVENTS:          0
cpu12->cpu12_L1D TOTAL        ACCESS:  139638292 HIT:  123817524 MISS:   15820768 MSHR_MERGE:   11217671
cpu12->cpu12_L1D LOAD         ACCESS:   14005845 HIT:   11909834 MISS:    2096011 MSHR_MERGE:     971021
cpu12->cpu12_L1D RFO          ACCESS:          0 HIT:          0 MISS:          0 MSHR_MERGE:          0
cpu12->cpu12_L1D PREFETCH     ACCESS:          0 HIT:          0 MISS:          0 MSHR_MERGE:          0
cpu12->cpu12_L1D WRITE        ACCESS:  125632447 HIT:  111907690 MISS:   13724757 MSHR_MERGE:   10246650
cpu12->cpu12_L1D TRANSLATION  ACCESS:          0 HIT:          0 MISS:          0 MSHR_MERGE:          0
cpu12->cpu12_L1D PREFETCH REQUESTED:          0 ISSUED:          0 USEFUL:          0 USELESS:          0
cpu12->cpu12_L1D AVERAGE MISS LATENCY: 86.47 cycles
cpu12_L1D COHERENCE INVALIDATIONS:          0
cpu12_L1D COHERENCE WRITE-HIT OTHER-SHARER EVENTS:          0
cpu12->cpu12_ITLB TOTAL        ACCESS:   97135870 HIT:   97096878 MISS:      38992 MSHR_MERGE:      15333
cpu12->cpu12_ITLB LOAD         ACCESS:   97135870 HIT:   97096878 MISS:      38992 MSHR_MERGE:      15333
cpu12->cpu12_ITLB RFO          ACCESS:          0 HIT:          0 MISS:          0 MSHR_MERGE:          0
cpu12->cpu12_ITLB PREFETCH     ACCESS:          0 HIT:          0 MISS:          0 MSHR_MERGE:          0
cpu12->cpu12_ITLB WRITE        ACCESS:          0 HIT:          0 MISS:          0 MSHR_MERGE:          0
cpu12->cpu12_ITLB TRANSLATION  ACCESS:          0 HIT:          0 MISS:          0 MSHR_MERGE:          0
cpu12->cpu12_ITLB PREFETCH REQUESTED:          0 ISSUED:          0 USEFUL:          0 USELESS:          0
cpu12->cpu12_ITLB AVERAGE MISS LATENCY: 4.003 cycles
cpu12_ITLB COHERENCE INVALIDATIONS:          0
cpu12_ITLB COHERENCE WRITE-HIT OTHER-SHARER EVENTS:          0
cpu12->cpu12_DTLB TOTAL        ACCESS:  116278778 HIT:  115975286 MISS:     303492 MSHR_MERGE:      67192
cpu12->cpu12_DTLB LOAD         ACCESS:  116278778 HIT:  115975286 MISS:     303492 MSHR_MERGE:      67192
cpu12->cpu12_DTLB RFO          ACCESS:          0 HIT:          0 MISS:          0 MSHR_MERGE:          0
cpu12->cpu12_DTLB PREFETCH     ACCESS:          0 HIT:          0 MISS:          0 MSHR_MERGE:          0
cpu12->cpu12_DTLB WRITE        ACCESS:          0 HIT:          0 MISS:          0 MSHR_MERGE:          0
cpu12->cpu12_DTLB TRANSLATION  ACCESS:          0 HIT:          0 MISS:          0 MSHR_MERGE:          0
cpu12->cpu12_DTLB PREFETCH REQUESTED:          0 ISSUED:          0 USEFUL:          0 USELESS:          0
cpu12->cpu12_DTLB AVERAGE MISS LATENCY: 4 cycles
cpu12_DTLB COHERENCE INVALIDATIONS:          0
cpu12_DTLB COHERENCE WRITE-HIT OTHER-SHARER EVENTS:          0
cpu11_STLB COHERENCE INVALIDATIONS:          0
cpu11_STLB COHERENCE WRITE-HIT OTHER-SHARER EVENTS:          0
cpu11_L2C COHERENCE INVALIDATIONS:          0
cpu11_L2C COHERENCE WRITE-HIT OTHER-SHARER EVENTS:          0
cpu11->cpu11_L1I TOTAL        ACCESS:  169831793 HIT:  169831793 MISS:          0 MSHR_MERGE:          0
cpu11->cpu11_L1I LOAD         ACCESS:  169831793 HIT:  169831793 MISS:          0 MSHR_MERGE:          0
cpu11->cpu11_L1I RFO          ACCESS:          0 HIT:          0 MISS:          0 MSHR_MERGE:          0
cpu11->cpu11_L1I PREFETCH     ACCESS:          0 HIT:          0 MISS:          0 MSHR_MERGE:          0
cpu11->cpu11_L1I WRITE        ACCESS:          0 HIT:          0 MISS:          0 MSHR_MERGE:          0
cpu11->cpu11_L1I TRANSLATION  ACCESS:          0 HIT:          0 MISS:          0 MSHR_MERGE:          0
cpu11->cpu11_L1I PREFETCH REQUESTED:          0 ISSUED:          0 USEFUL:          0 USELESS:          0
cpu11->cpu11_L1I AVERAGE MISS LATENCY: - cycles
cpu11_L1I COHERENCE INVALIDATIONS:          0
cpu11_L1I COHERENCE WRITE-HIT OTHER-SHARER EVENTS:          0
cpu11_L1D COHERENCE INVALIDATIONS:          0
cpu11_L1D COHERENCE WRITE-HIT OTHER-SHARER EVENTS:          0
cpu11->cpu11_ITLB TOTAL        ACCESS:  141747305 HIT:  141747305 MISS:          0 MSHR_MERGE:          0
cpu11->cpu11_ITLB LOAD         ACCESS:  141747305 HIT:  141747305 MISS:          0 MSHR_MERGE:          0
cpu11->cpu11_ITLB RFO          ACCESS:          0 HIT:          0 MISS:          0 MSHR_MERGE:          0
cpu11->cpu11_ITLB PREFETCH     ACCESS:          0 HIT:          0 MISS:          0 MSHR_MERGE:          0
cpu11->cpu11_ITLB WRITE        ACCESS:          0 HIT:          0 MISS:          0 MSHR_MERGE:          0
cpu11->cpu11_ITLB TRANSLATION  ACCESS:          0 HIT:          0 MISS:          0 MSHR_MERGE:          0
cpu11->cpu11_ITLB PREFETCH REQUESTED:          0 ISSUED:          0 USEFUL:          0 USELESS:          0
cpu11->cpu11_ITLB AVERAGE MISS LATENCY: - cycles
cpu11_ITLB COHERENCE INVALIDATIONS:          0
cpu11_ITLB COHERENCE WRITE-HIT OTHER-SHARER EVENTS:          0
cpu11_DTLB COHERENCE INVALIDATIONS:          0
cpu11_DTLB COHERENCE WRITE-HIT OTHER-SHARER EVENTS:          0
cpu10_STLB COHERENCE INVALIDATIONS:          0
cpu10_STLB COHERENCE WRITE-HIT OTHER-SHARER EVENTS:          0
cpu10_L2C COHERENCE INVALIDATIONS:          0
cpu10_L2C COHERENCE WRITE-HIT OTHER-SHARER EVENTS:          0
cpu10->cpu10_L1I TOTAL        ACCESS:  169969415 HIT:  169969415 MISS:          0 MSHR_MERGE:          0
cpu10->cpu10_L1I LOAD         ACCESS:  169969415 HIT:  169969415 MISS:          0 MSHR_MERGE:          0
cpu10->cpu10_L1I RFO          ACCESS:          0 HIT:          0 MISS:          0 MSHR_MERGE:          0
cpu10->cpu10_L1I PREFETCH     ACCESS:          0 HIT:          0 MISS:          0 MSHR_MERGE:          0
cpu10->cpu10_L1I WRITE        ACCESS:          0 HIT:          0 MISS:          0 MSHR_MERGE:          0
cpu10->cpu10_L1I TRANSLATION  ACCESS:          0 HIT:          0 MISS:          0 MSHR_MERGE:          0
cpu10->cpu10_L1I PREFETCH REQUESTED:          0 ISSUED:          0 USEFUL:          0 USELESS:          0
cpu10->cpu10_L1I AVERAGE MISS LATENCY: - cycles
cpu10_L1I COHERENCE INVALIDATIONS:          0
cpu10_L1I COHERENCE WRITE-HIT OTHER-SHARER EVENTS:          0
cpu10_L1D COHERENCE INVALIDATIONS:          0
cpu10_L1D COHERENCE WRITE-HIT OTHER-SHARER EVENTS:          0
cpu10->cpu10_ITLB TOTAL        ACCESS:  141819701 HIT:  141819701 MISS:          0 MSHR_MERGE:          0
cpu10->cpu10_ITLB LOAD         ACCESS:  141819701 HIT:  141819701 MISS:          0 MSHR_MERGE:          0
cpu10->cpu10_ITLB RFO          ACCESS:          0 HIT:          0 MISS:          0 MSHR_MERGE:          0
cpu10->cpu10_ITLB PREFETCH     ACCESS:          0 HIT:          0 MISS:          0 MSHR_MERGE:          0
cpu10->cpu10_ITLB WRITE        ACCESS:          0 HIT:          0 MISS:          0 MSHR_MERGE:          0
cpu10->cpu10_ITLB TRANSLATION  ACCESS:          0 HIT:          0 MISS:          0 MSHR_MERGE:          0
cpu10->cpu10_ITLB PREFETCH REQUESTED:          0 ISSUED:          0 USEFUL:          0 USELESS:          0
cpu10->cpu10_ITLB AVERAGE MISS LATENCY: - cycles
cpu10_ITLB COHERENCE INVALIDATIONS:          0
cpu10_ITLB COHERENCE WRITE-HIT OTHER-SHARER EVENTS:          0
cpu10_DTLB COHERENCE INVALIDATIONS:          0
cpu10_DTLB COHERENCE WRITE-HIT OTHER-SHARER EVENTS:          0
cpu0->cpu0_STLB TOTAL        ACCESS:     259960 HIT:     259960 MISS:          0 MSHR_MERGE:          0
cpu0->cpu0_STLB LOAD         ACCESS:     259960 HIT:     259960 MISS:          0 MSHR_MERGE:          0
cpu0->cpu0_STLB RFO          ACCESS:          0 HIT:          0 MISS:          0 MSHR_MERGE:          0
cpu0->cpu0_STLB PREFETCH     ACCESS:          0 HIT:          0 MISS:          0 MSHR_MERGE:          0
cpu0->cpu0_STLB WRITE        ACCESS:          0 HIT:          0 MISS:          0 MSHR_MERGE:          0
cpu0->cpu0_STLB TRANSLATION  ACCESS:          0 HIT:          0 MISS:          0 MSHR_MERGE:          0
cpu0->cpu0_STLB PREFETCH REQUESTED:          0 ISSUED:          0 USEFUL:          0 USELESS:          0
cpu0->cpu0_STLB AVERAGE MISS LATENCY: - cycles
cpu0_STLB COHERENCE INVALIDATIONS:          0
cpu0_STLB COHERENCE WRITE-HIT OTHER-SHARER EVENTS:          0
cpu0->cpu0_L2C TOTAL        ACCESS:    8313441 HIT:    4032189 MISS:    4281252 MSHR_MERGE:          0
cpu0->cpu0_L2C LOAD         ACCESS:    1312798 HIT:     443542 MISS:     869256 MSHR_MERGE:          0
cpu0->cpu0_L2C RFO          ACCESS:    3473315 HIT:      61319 MISS:    3411996 MSHR_MERGE:          0
cpu0->cpu0_L2C PREFETCH     ACCESS:          0 HIT:          0 MISS:          0 MSHR_MERGE:          0
cpu0->cpu0_L2C WRITE        ACCESS:    3527328 HIT:    3527328 MISS:          0 MSHR_MERGE:          0
cpu0->cpu0_L2C TRANSLATION  ACCESS:          0 HIT:          0 MISS:          0 MSHR_MERGE:          0
cpu0->cpu0_L2C PREFETCH REQUESTED:          0 ISSUED:          0 USEFUL:          0 USELESS:          0
cpu0->cpu0_L2C AVERAGE MISS LATENCY: 93.44 cycles
cpu0_L2C COHERENCE INVALIDATIONS:          0
cpu0_L2C COHERENCE WRITE-HIT OTHER-SHARER EVENTS:          0
cpu0->cpu0_L1I TOTAL        ACCESS:  116653990 HIT:  116391136 MISS:     262854 MSHR_MERGE:      75045
cpu0->cpu0_L1I LOAD         ACCESS:  116653990 HIT:  116391136 MISS:     262854 MSHR_MERGE:      75045
cpu0->cpu0_L1I RFO          ACCESS:          0 HIT:          0 MISS:          0 MSHR_MERGE:          0
cpu0->cpu0_L1I PREFETCH     ACCESS:          0 HIT:          0 MISS:          0 MSHR_MERGE:          0
cpu0->cpu0_L1I WRITE        ACCESS:          0 HIT:          0 MISS:          0 MSHR_MERGE:          0
cpu0->cpu0_L1I TRANSLATION  ACCESS:          0 HIT:          0 MISS:          0 MSHR_MERGE:          0
cpu0->cpu0_L1I PREFETCH REQUESTED:          0 ISSUED:          0 USEFUL:          0 USELESS:          0
cpu0->cpu0_L1I AVERAGE MISS LATENCY: 211.8 cycles
cpu0_L1I COHERENCE INVALIDATIONS:          0
cpu0_L1I COHERENCE WRITE-HIT OTHER-SHARER EVENTS:          0
cpu0->cpu0_L1D TOTAL        ACCESS:  139638244 HIT:  123817487 MISS:   15820757 MSHR_MERGE:   11217661
cpu0->cpu0_L1D LOAD         ACCESS:   14005774 HIT:   11909777 MISS:    2095997 MSHR_MERGE:     971008
cpu0->cpu0_L1D RFO          ACCESS:          0 HIT:          0 MISS:          0 MSHR_MERGE:          0
cpu0->cpu0_L1D PREFETCH     ACCESS:          0 HIT:          0 MISS:          0 MSHR_MERGE:          0
cpu0->cpu0_L1D WRITE        ACCESS:  125632470 HIT:  111907710 MISS:   13724760 MSHR_MERGE:   10246653
cpu0->cpu0_L1D TRANSLATION  ACCESS:          0 HIT:          0 MISS:          0 MSHR_MERGE:          0
cpu0->cpu0_L1D PREFETCH REQUESTED:          0 ISSUED:          0 USEFUL:          0 USELESS:          0
cpu0->cpu0_L1D AVERAGE MISS LATENCY: 86.47 cycles
cpu0_L1D COHERENCE INVALIDATIONS:          0
cpu0_L1D COHERENCE WRITE-HIT OTHER-SHARER EVENTS:          0
cpu0->cpu0_ITLB TOTAL        ACCESS:   97135733 HIT:   97096741 MISS:      38992 MSHR_MERGE:      15333
cpu0->cpu0_ITLB LOAD         ACCESS:   97135733 HIT:   97096741 MISS:      38992 MSHR_MERGE:      15333
cpu0->cpu0_ITLB RFO          ACCESS:          0 HIT:          0 MISS:          0 MSHR_MERGE:          0
cpu0->cpu0_ITLB PREFETCH     ACCESS:          0 HIT:          0 MISS:          0 MSHR_MERGE:          0
cpu0->cpu0_ITLB WRITE        ACCESS:          0 HIT:          0 MISS:          0 MSHR_MERGE:          0
cpu0->cpu0_ITLB TRANSLATION  ACCESS:          0 HIT:          0 MISS:          0 MSHR_MERGE:          0
cpu0->cpu0_ITLB PREFETCH REQUESTED:          0 ISSUED:          0 USEFUL:          0 USELESS:          0
cpu0->cpu0_ITLB AVERAGE MISS LATENCY: 4.003 cycles
cpu0_ITLB COHERENCE INVALIDATIONS:          0
cpu0_ITLB COHERENCE WRITE-HIT OTHER-SHARER EVENTS:          0
cpu0->cpu0_DTLB TOTAL        ACCESS:  116278731 HIT:  115975224 MISS:     303507 MSHR_MERGE:      67206
cpu0->cpu0_DTLB LOAD         ACCESS:  116278731 HIT:  115975224 MISS:     303507 MSHR_MERGE:      67206
cpu0->cpu0_DTLB RFO          ACCESS:          0 HIT:          0 MISS:          0 MSHR_MERGE:          0
cpu0->cpu0_DTLB PREFETCH     ACCESS:          0 HIT:          0 MISS:          0 MSHR_MERGE:          0
cpu0->cpu0_DTLB WRITE        ACCESS:          0 HIT:          0 MISS:          0 MSHR_MERGE:          0
cpu0->cpu0_DTLB TRANSLATION  ACCESS:          0 HIT:          0 MISS:          0 MSHR_MERGE:          0
cpu0->cpu0_DTLB PREFETCH REQUESTED:          0 ISSUED:          0 USEFUL:          0 USELESS:          0
cpu0->cpu0_DTLB AVERAGE MISS LATENCY: 4 cycles
cpu0_DTLB COHERENCE INVALIDATIONS:          0
cpu0_DTLB COHERENCE WRITE-HIT OTHER-SHARER EVENTS:          0
cpu0->LLC TOTAL        ACCESS:    7733122 HIT:    6148125 MISS:    1584997 MSHR_MERGE:     476996
cpu0->LLC LOAD         ACCESS:     869256 HIT:     202196 MISS:     667060 MSHR_MERGE:     322283
cpu0->LLC RFO          ACCESS:    3411996 HIT:    2702642 MISS:     709354 MSHR_MERGE:     154713
cpu0->LLC PREFETCH     ACCESS:          0 HIT:          0 MISS:          0 MSHR_MERGE:          0
cpu0->LLC WRITE        ACCESS:    3451870 HIT:    3243287 MISS:     208583 MSHR_MERGE:          0
cpu0->LLC TRANSLATION  ACCESS:          0 HIT:          0 MISS:          0 MSHR_MERGE:          0
cpu0->LLC PREFETCH REQUESTED:          0 ISSUED:          0 USEFUL:          0 USELESS:          0
cpu0->LLC AVERAGE MISS LATENCY: 2854 cycles
cpu1->LLC TOTAL        ACCESS:    1940364 HIT:     402464 MISS:    1537900 MSHR_MERGE:     928956
cpu1->LLC LOAD         ACCESS:    1552812 HIT:     402400 MISS:    1150412 MSHR_MERGE:     928956
cpu1->LLC RFO          ACCESS:          0 HIT:          0 MISS:          0 MSHR_MERGE:          0
cpu1->LLC PREFETCH     ACCESS:          0 HIT:          0 MISS:          0 MSHR_MERGE:          0
cpu1->LLC WRITE        ACCESS:          0 HIT:          0 MISS:          0 MSHR_MERGE:          0
cpu1->LLC TRANSLATION  ACCESS:     387552 HIT:         64 MISS:     387488 MSHR_MERGE:          0
cpu1->LLC PREFETCH REQUESTED:          0 ISSUED:          0 USEFUL:          0 USELESS:          0
cpu1->LLC AVERAGE MISS LATENCY: 1851 cycles
cpu4->LLC TOTAL        ACCESS:    7734981 HIT:    6828981 MISS:     906000 MSHR_MERGE:     569409
cpu4->LLC LOAD         ACCESS:     869266 HIT:     233826 MISS:     635440 MSHR_MERGE:     521634
cpu4->LLC RFO          ACCESS:    3413067 HIT:    3247977 MISS:     165090 MSHR_MERGE:      47775
cpu4->LLC PREFETCH     ACCESS:          0 HIT:          0 MISS:          0 MSHR_MERGE:          0
cpu4->LLC WRITE        ACCESS:    3452648 HIT:    3347178 MISS:     105470 MSHR_MERGE:          0
cpu4->LLC TRANSLATION  ACCESS:          0 HIT:          0 MISS:          0 MSHR_MERGE:          0
cpu4->LLC PREFETCH REQUESTED:          0 ISSUED:          0 USEFUL:          0 USELESS:          0
cpu4->LLC AVERAGE MISS LATENCY: 2364 cycles
cpu5->LLC TOTAL        ACCESS:    1943776 HIT:     422689 MISS:    1521087 MSHR_MERGE:     969852
cpu5->LLC LOAD         ACCESS:    1555387 HIT:     422635 MISS:    1132752 MSHR_MERGE:     969852
cpu5->LLC RFO          ACCESS:          0 HIT:          0 MISS:          0 MSHR_MERGE:          0
cpu5->LLC PREFETCH     ACCESS:          0 HIT:          0 MISS:          0 MSHR_MERGE:          0
cpu5->LLC WRITE        ACCESS:          0 HIT:          0 MISS:          0 MSHR_MERGE:          0
cpu5->LLC TRANSLATION  ACCESS:     388389 HIT:         54 MISS:     388335 MSHR_MERGE:          0
cpu5->LLC PREFETCH REQUESTED:          0 ISSUED:          0 USEFUL:          0 USELESS:          0
cpu5->LLC AVERAGE MISS LATENCY: 1063 cycles
cpu8->LLC TOTAL        ACCESS:    7732542 HIT:    6783824 MISS:     948718 MSHR_MERGE:     632095
cpu8->LLC LOAD         ACCESS:     869263 HIT:     211702 MISS:     657561 MSHR_MERGE:     554088
cpu8->LLC RFO          ACCESS:    3411699 HIT:    3219422 MISS:     192277 MSHR_MERGE:      78007
cpu8->LLC PREFETCH     ACCESS:          0 HIT:          0 MISS:          0 MSHR_MERGE:          0
cpu8->LLC WRITE        ACCESS:    3451580 HIT:    3352700 MISS:      98880 MSHR_MERGE:          0
cpu8->LLC TRANSLATION  ACCESS:          0 HIT:          0 MISS:          0 MSHR_MERGE:          0
cpu8->LLC PREFETCH REQUESTED:          0 ISSUED:          0 USEFUL:          0 USELESS:          0
cpu8->LLC AVERAGE MISS LATENCY: 1670 cycles
cpu9->LLC TOTAL        ACCESS:    1940940 HIT:     407213 MISS:    1533727 MSHR_MERGE:     786842
cpu9->LLC LOAD         ACCESS:    1553079 HIT:     407213 MISS:    1145866 MSHR_MERGE:     786842
cpu9->LLC RFO          ACCESS:          0 HIT:          0 MISS:          0 MSHR_MERGE:          0
cpu9->LLC PREFETCH     ACCESS:          0 HIT:          0 MISS:          0 MSHR_MERGE:          0
cpu9->LLC WRITE        ACCESS:          0 HIT:          0 MISS:          0 MSHR_MERGE:          0
cpu9->LLC TRANSLATION  ACCESS:     387861 HIT:          0 MISS:     387861 MSHR_MERGE:          0
cpu9->LLC PREFETCH REQUESTED:          0 ISSUED:          0 USEFUL:          0 USELESS:          0
cpu9->LLC AVERAGE MISS LATENCY: 1402 cycles
cpu12->LLC TOTAL        ACCESS:    7733122 HIT:    6148134 MISS:    1584988 MSHR_MERGE:    1127935
cpu12->LLC LOAD         ACCESS:     869256 HIT:     202196 MISS:     667060 MSHR_MERGE:     549793
cpu12->LLC RFO          ACCESS:    3411996 HIT:    2702643 MISS:     709353 MSHR_MERGE:     578142
cpu12->LLC PREFETCH     ACCESS:          0 HIT:          0 MISS:          0 MSHR_MERGE:          0
cpu12->LLC WRITE        ACCESS:    3451870 HIT:    3243295 MISS:     208575 MSHR_MERGE:          0
cpu12->LLC TRANSLATION  ACCESS:          0 HIT:          0 MISS:          0 MSHR_MERGE:          0
cpu12->LLC PREFETCH REQUESTED:          0 ISSUED:          0 USEFUL:          0 USELESS:          0
cpu12->LLC AVERAGE MISS LATENCY: 1277 cycles
cpu13->LLC TOTAL        ACCESS:    1940174 HIT:     402087 MISS:    1538087 MSHR_MERGE:     674168
cpu13->LLC LOAD         ACCESS:    1552676 HIT:     401947 MISS:    1150729 MSHR_MERGE:     674168
cpu13->LLC RFO          ACCESS:          0 HIT:          0 MISS:          0 MSHR_MERGE:          0
cpu13->LLC PREFETCH     ACCESS:          0 HIT:          0 MISS:          0 MSHR_MERGE:          0
cpu13->LLC WRITE        ACCESS:          0 HIT:          0 MISS:          0 MSHR_MERGE:          0
cpu13->LLC TRANSLATION  ACCESS:     387498 HIT:        140 MISS:     387358 MSHR_MERGE:          0
cpu13->LLC PREFETCH REQUESTED:          0 ISSUED:          0 USEFUL:          0 USELESS:          0
cpu13->LLC AVERAGE MISS LATENCY: 2008 cycles
LLC COHERENCE INVALIDATIONS:   19810407
LLC COHERENCE WRITE-HIT OTHER-SHARER EVENTS:   13186318

DRAM Statistics

Channel 0 RQ ROW_BUFFER_HIT:      78354
  ROW_BUFFER_MISS:    4284105
  AVG DBUS CONGESTED CYCLE: 7.562
Channel 0 WQ ROW_BUFFER_HIT:     238471
  ROW_BUFFER_MISS:     763310
  FULL:       4752
Channel 0 REFRESHES ISSUED:      24645

VMEM ALIASED FILLS (cross-CPU shared-page hits): 897238
