[VMEM] WARNING: physical memory size is smaller than virtual memory size.

*** ChampSim Multicore Out-of-Order Simulator ***
Warmup Instructions: 50000000
Simulation Instructions: 100000000
Number of CPUs: 8
Page size: 4096

Off-chip DRAM Size: 16 GiB Channels: 1 Width: 64-bit Data Rate: 3205 MT/s
Heartbeat CPU 3 instructions: 10000002 cycles: 2508105 heartbeat IPC: 3.987 cumulative IPC: 3.987 (Simulation time: 00 hr 10 min 50 sec)
Heartbeat CPU 2 instructions: 10000003 cycles: 2508181 heartbeat IPC: 3.987 cumulative IPC: 3.987 (Simulation time: 00 hr 10 min 50 sec)
Heartbeat CPU 6 instructions: 10000001 cycles: 2508181 heartbeat IPC: 3.987 cumulative IPC: 3.987 (Simulation time: 00 hr 10 min 50 sec)
Heartbeat CPU 7 instructions: 10000002 cycles: 2508302 heartbeat IPC: 3.987 cumulative IPC: 3.987 (Simulation time: 00 hr 10 min 50 sec)
Heartbeat CPU 4 instructions: 10000003 cycles: 2979831 heartbeat IPC: 3.356 cumulative IPC: 3.356 (Simulation time: 00 hr 12 min 43 sec)
Heartbeat CPU 0 instructions: 10000000 cycles: 2979885 heartbeat IPC: 3.356 cumulative IPC: 3.356 (Simulation time: 00 hr 12 min 43 sec)
Heartbeat CPU 1 instructions: 10000002 cycles: 4086091 heartbeat IPC: 2.447 cumulative IPC: 2.447 (Simulation time: 00 hr 16 min 56 sec)
Heartbeat CPU 5 instructions: 10000002 cycles: 4089698 heartbeat IPC: 2.445 cumulative IPC: 2.445 (Simulation time: 00 hr 16 min 57 sec)
Heartbeat CPU 3 instructions: 20000002 cycles: 5008105 heartbeat IPC: 4 cumulative IPC: 3.994 (Simulation time: 00 hr 20 min 40 sec)
Heartbeat CPU 2 instructions: 20000003 cycles: 5008181 heartbeat IPC: 4 cumulative IPC: 3.993 (Simulation time: 00 hr 20 min 40 sec)
Heartbeat CPU 6 instructions: 20000001 cycles: 5008181 heartbeat IPC: 4 cumulative IPC: 3.993 (Simulation time: 00 hr 20 min 40 sec)
Heartbeat CPU 7 instructions: 20000002 cycles: 5008302 heartbeat IPC: 4 cumulative IPC: 3.993 (Simulation time: 00 hr 20 min 40 sec)
Heartbeat CPU 3 instructions: 30000002 cycles: 7508105 heartbeat IPC: 4 cumulative IPC: 3.996 (Simulation time: 00 hr 30 min 39 sec)
Heartbeat CPU 2 instructions: 30000003 cycles: 7508181 heartbeat IPC: 4 cumulative IPC: 3.996 (Simulation time: 00 hr 30 min 39 sec)
Heartbeat CPU 6 instructions: 30000001 cycles: 7508181 heartbeat IPC: 4 cumulative IPC: 3.996 (Simulation time: 00 hr 30 min 39 sec)
Heartbeat CPU 7 instructions: 30000002 cycles: 7508302 heartbeat IPC: 4 cumulative IPC: 3.996 (Simulation time: 00 hr 30 min 39 sec)
Heartbeat CPU 1 instructions: 20000004 cycles: 7760364 heartbeat IPC: 2.722 cumulative IPC: 2.577 (Simulation time: 00 hr 31 min 40 sec)
Heartbeat CPU 5 instructions: 20000004 cycles: 7778266 heartbeat IPC: 2.711 cumulative IPC: 2.571 (Simulation time: 00 hr 31 min 44 sec)
Heartbeat CPU 3 instructions: 40000002 cycles: 10008105 heartbeat IPC: 4 cumulative IPC: 3.997 (Simulation time: 00 hr 40 min 31 sec)
Heartbeat CPU 2 instructions: 40000003 cycles: 10008181 heartbeat IPC: 4 cumulative IPC: 3.997 (Simulation time: 00 hr 40 min 31 sec)
Heartbeat CPU 6 instructions: 40000001 cycles: 10008181 heartbeat IPC: 4 cumulative IPC: 3.997 (Simulation time: 00 hr 40 min 31 sec)
Heartbeat CPU 7 instructions: 40000002 cycles: 10008302 heartbeat IPC: 4 cumulative IPC: 3.997 (Simulation time: 00 hr 40 min 31 sec)
Heartbeat CPU 1 instructions: 30000005 cycles: 11456994 heartbeat IPC: 2.705 cumulative IPC: 2.618 (Simulation time: 00 hr 45 min 53 sec)
Heartbeat CPU 5 instructions: 30000005 cycles: 11489530 heartbeat IPC: 2.695 cumulative IPC: 2.611 (Simulation time: 00 hr 46 min 00 sec)
Heartbeat CPU 3 instructions: 50000002 cycles: 12508105 heartbeat IPC: 4 cumulative IPC: 3.997 (Simulation time: 00 hr 49 min 50 sec)
Warmup finished CPU 3 instructions: 50000002 cycles: 12508105 cumulative IPC: 3.997 (Simulation time: 00 hr 49 min 50 sec)
Heartbeat CPU 2 instructions: 50000003 cycles: 12508181 heartbeat IPC: 4 cumulative IPC: 3.997 (Simulation time: 00 hr 49 min 50 sec)
Heartbeat CPU 6 instructions: 50000001 cycles: 12508181 heartbeat IPC: 4 cumulative IPC: 3.997 (Simulation time: 00 hr 49 min 50 sec)
Warmup finished CPU 6 instructions: 50000001 cycles: 12508181 cumulative IPC: 3.997 (Simulation time: 00 hr 49 min 50 sec)
Warmup finished CPU 2 instructions: 50000003 cycles: 12508181 cumulative IPC: 3.997 (Simulation time: 00 hr 49 min 50 sec)
Heartbeat CPU 7 instructions: 50000002 cycles: 12508302 heartbeat IPC: 4 cumulative IPC: 3.997 (Simulation time: 00 hr 49 min 50 sec)
Warmup finished CPU 7 instructions: 50000002 cycles: 12508302 cumulative IPC: 3.997 (Simulation time: 00 hr 49 min 50 sec)
Heartbeat CPU 0 instructions: 20000000 cycles: 13853048 heartbeat IPC: 0.9197 cumulative IPC: 1.444 (Simulation time: 00 hr 54 min 58 sec)
Heartbeat CPU 4 instructions: 20000005 cycles: 13853205 heartbeat IPC: 0.9197 cumulative IPC: 1.444 (Simulation time: 00 hr 54 min 58 sec)
Heartbeat CPU 3 instructions: 60000002 cycles: 15008105 heartbeat IPC: 4 cumulative IPC: 3.998 (Simulation time: 00 hr 59 min 22 sec)
Heartbeat CPU 2 instructions: 60000003 cycles: 15008181 heartbeat IPC: 4 cumulative IPC: 3.998 (Simulation time: 00 hr 59 min 22 sec)
Heartbeat CPU 6 instructions: 60000001 cycles: 15008181 heartbeat IPC: 4 cumulative IPC: 3.998 (Simulation time: 00 hr 59 min 22 sec)
Heartbeat CPU 7 instructions: 60000002 cycles: 15008302 heartbeat IPC: 4 cumulative IPC: 3.998 (Simulation time: 00 hr 59 min 22 sec)
Heartbeat CPU 1 instructions: 40000006 cycles: 15151179 heartbeat IPC: 2.707 cumulative IPC: 2.64 (Simulation time: 00 hr 59 min 55 sec)
Heartbeat CPU 5 instructions: 40000006 cycles: 15198231 heartbeat IPC: 2.696 cumulative IPC: 2.632 (Simulation time: 01 hr 00 min 05 sec)
Heartbeat CPU 3 instructions: 70000002 cycles: 17508105 heartbeat IPC: 4 cumulative IPC: 3.998 (Simulation time: 01 hr 09 min 10 sec)
Heartbeat CPU 2 instructions: 70000003 cycles: 17508181 heartbeat IPC: 4 cumulative IPC: 3.998 (Simulation time: 01 hr 09 min 10 sec)
Heartbeat CPU 6 instructions: 70000001 cycles: 17508181 heartbeat IPC: 4 cumulative IPC: 3.998 (Simulation time: 01 hr 09 min 10 sec)
Heartbeat CPU 7 instructions: 70000002 cycles: 17508302 heartbeat IPC: 4 cumulative IPC: 3.998 (Simulation time: 01 hr 09 min 10 sec)
Warmup finished CPU 1 instructions: 50000003 cycles: 18866674 cumulative IPC: 2.65 (Simulation time: 01 hr 14 min 31 sec)
Heartbeat CPU 1 instructions: 50000007 cycles: 18866675 heartbeat IPC: 2.691 cumulative IPC: 2.65 (Simulation time: 01 hr 14 min 31 sec)
Warmup finished CPU 5 instructions: 50000003 cycles: 18928610 cumulative IPC: 2.642 (Simulation time: 01 hr 14 min 46 sec)
Heartbeat CPU 5 instructions: 50000007 cycles: 18928611 heartbeat IPC: 2.681 cumulative IPC: 2.642 (Simulation time: 01 hr 14 min 46 sec)
Heartbeat CPU 3 instructions: 80000002 cycles: 20008105 heartbeat IPC: 4 cumulative IPC: 3.998 (Simulation time: 01 hr 18 min 59 sec)
Heartbeat CPU 2 instructions: 80000003 cycles: 20008181 heartbeat IPC: 4 cumulative IPC: 3.998 (Simulation time: 01 hr 18 min 59 sec)
Heartbeat CPU 6 instructions: 80000001 cycles: 20008181 heartbeat IPC: 4 cumulative IPC: 3.998 (Simulation time: 01 hr 18 min 59 sec)
Heartbeat CPU 7 instructions: 80000002 cycles: 20008302 heartbeat IPC: 4 cumulative IPC: 3.998 (Simulation time: 01 hr 18 min 59 sec)
Heartbeat CPU 1 instructions: 60000010 cycles: 22485981 heartbeat IPC: 2.763 cumulative IPC: 2.668 (Simulation time: 01 hr 28 min 33 sec)
Heartbeat CPU 3 instructions: 90000002 cycles: 22508105 heartbeat IPC: 4 cumulative IPC: 3.999 (Simulation time: 01 hr 28 min 38 sec)
Heartbeat CPU 2 instructions: 90000003 cycles: 22508181 heartbeat IPC: 4 cumulative IPC: 3.999 (Simulation time: 01 hr 28 min 38 sec)
Heartbeat CPU 6 instructions: 90000001 cycles: 22508181 heartbeat IPC: 4 cumulative IPC: 3.999 (Simulation time: 01 hr 28 min 38 sec)
Heartbeat CPU 7 instructions: 90000002 cycles: 22508302 heartbeat IPC: 4 cumulative IPC: 3.999 (Simulation time: 01 hr 28 min 38 sec)
Heartbeat CPU 5 instructions: 60000010 cycles: 22563512 heartbeat IPC: 2.751 cumulative IPC: 2.659 (Simulation time: 01 hr 28 min 51 sec)
Heartbeat CPU 3 instructions: 100000002 cycles: 25008105 heartbeat IPC: 4 cumulative IPC: 3.999 (Simulation time: 01 hr 38 min 08 sec)
Heartbeat CPU 2 instructions: 100000003 cycles: 25008181 heartbeat IPC: 4 cumulative IPC: 3.999 (Simulation time: 01 hr 38 min 08 sec)
Heartbeat CPU 6 instructions: 100000001 cycles: 25008181 heartbeat IPC: 4 cumulative IPC: 3.999 (Simulation time: 01 hr 38 min 08 sec)
Heartbeat CPU 7 instructions: 100000002 cycles: 25008302 heartbeat IPC: 4 cumulative IPC: 3.999 (Simulation time: 01 hr 38 min 08 sec)
Heartbeat CPU 1 instructions: 70000012 cycles: 26177782 heartbeat IPC: 2.709 cumulative IPC: 2.674 (Simulation time: 01 hr 42 min 38 sec)
Heartbeat CPU 5 instructions: 70000012 cycles: 26270176 heartbeat IPC: 2.698 cumulative IPC: 2.665 (Simulation time: 01 hr 42 min 59 sec)
Heartbeat CPU 3 instructions: 110000002 cycles: 27508105 heartbeat IPC: 4 cumulative IPC: 3.999 (Simulation time: 01 hr 47 min 35 sec)
Heartbeat CPU 2 instructions: 110000003 cycles: 27508181 heartbeat IPC: 4 cumulative IPC: 3.999 (Simulation time: 01 hr 47 min 35 sec)
Heartbeat CPU 6 instructions: 110000001 cycles: 27508181 heartbeat IPC: 4 cumulative IPC: 3.999 (Simulation time: 01 hr 47 min 35 sec)
Heartbeat CPU 7 instructions: 110000002 cycles: 27508302 heartbeat IPC: 4 cumulative IPC: 3.999 (Simulation time: 01 hr 47 min 35 sec)
Heartbeat CPU 0 instructions: 30000000 cycles: 28993635 heartbeat IPC: 0.6605 cumulative IPC: 1.035 (Simulation time: 01 hr 53 min 12 sec)
Heartbeat CPU 4 instructions: 30000005 cycles: 28993740 heartbeat IPC: 0.6605 cumulative IPC: 1.035 (Simulation time: 01 hr 53 min 12 sec)
Heartbeat CPU 1 instructions: 80000012 cycles: 29863490 heartbeat IPC: 2.713 cumulative IPC: 2.679 (Simulation time: 01 hr 56 min 32 sec)
Heartbeat CPU 5 instructions: 80000012 cycles: 29971372 heartbeat IPC: 2.702 cumulative IPC: 2.669 (Simulation time: 01 hr 56 min 55 sec)
Heartbeat CPU 3 instructions: 120000002 cycles: 30008105 heartbeat IPC: 4 cumulative IPC: 3.999 (Simulation time: 01 hr 57 min 03 sec)
Heartbeat CPU 2 instructions: 120000003 cycles: 30008181 heartbeat IPC: 4 cumulative IPC: 3.999 (Simulation time: 01 hr 57 min 03 sec)
Heartbeat CPU 6 instructions: 120000001 cycles: 30008181 heartbeat IPC: 4 cumulative IPC: 3.999 (Simulation time: 01 hr 57 min 03 sec)
Heartbeat CPU 7 instructions: 120000002 cycles: 30008302 heartbeat IPC: 4 cumulative IPC: 3.999 (Simulation time: 01 hr 57 min 03 sec)
Heartbeat CPU 3 instructions: 130000002 cycles: 32508105 heartbeat IPC: 4 cumulative IPC: 3.999 (Simulation time: 02 hr 06 min 14 sec)
Heartbeat CPU 2 instructions: 130000003 cycles: 32508181 heartbeat IPC: 4 cumulative IPC: 3.999 (Simulation time: 02 hr 06 min 14 sec)
Heartbeat CPU 6 instructions: 130000001 cycles: 32508181 heartbeat IPC: 4 cumulative IPC: 3.999 (Simulation time: 02 hr 06 min 14 sec)
Heartbeat CPU 7 instructions: 130000002 cycles: 32508302 heartbeat IPC: 4 cumulative IPC: 3.999 (Simulation time: 02 hr 06 min 14 sec)
Heartbeat CPU 1 instructions: 90000015 cycles: 33523545 heartbeat IPC: 2.732 cumulative IPC: 2.685 (Simulation time: 02 hr 09 min 51 sec)
Heartbeat CPU 5 instructions: 90000015 cycles: 33646106 heartbeat IPC: 2.721 cumulative IPC: 2.675 (Simulation time: 02 hr 10 min 18 sec)
Heartbeat CPU 3 instructions: 140000002 cycles: 35008105 heartbeat IPC: 4 cumulative IPC: 3.999 (Simulation time: 02 hr 15 min 24 sec)
Heartbeat CPU 2 instructions: 140000003 cycles: 35008181 heartbeat IPC: 4 cumulative IPC: 3.999 (Simulation time: 02 hr 15 min 24 sec)
Heartbeat CPU 6 instructions: 140000001 cycles: 35008181 heartbeat IPC: 4 cumulative IPC: 3.999 (Simulation time: 02 hr 15 min 24 sec)
Heartbeat CPU 7 instructions: 140000002 cycles: 35008302 heartbeat IPC: 4 cumulative IPC: 3.999 (Simulation time: 02 hr 15 min 24 sec)
Heartbeat CPU 1 instructions: 100000016 cycles: 37195327 heartbeat IPC: 2.723 cumulative IPC: 2.689 (Simulation time: 02 hr 23 min 38 sec)
Heartbeat CPU 5 instructions: 100000016 cycles: 37332873 heartbeat IPC: 2.712 cumulative IPC: 2.679 (Simulation time: 02 hr 24 min 10 sec)
Heartbeat CPU 3 instructions: 150000002 cycles: 37508105 heartbeat IPC: 4 cumulative IPC: 3.999 (Simulation time: 02 hr 24 min 50 sec)
Heartbeat CPU 2 instructions: 150000003 cycles: 37508181 heartbeat IPC: 4 cumulative IPC: 3.999 (Simulation time: 02 hr 24 min 50 sec)
Heartbeat CPU 6 instructions: 150000001 cycles: 37508181 heartbeat IPC: 4 cumulative IPC: 3.999 (Simulation time: 02 hr 24 min 50 sec)
Heartbeat CPU 7 instructions: 150000002 cycles: 37508302 heartbeat IPC: 4 cumulative IPC: 3.999 (Simulation time: 02 hr 24 min 50 sec)
Heartbeat CPU 3 instructions: 160000002 cycles: 40008105 heartbeat IPC: 4 cumulative IPC: 3.999 (Simulation time: 02 hr 34 min 23 sec)
Heartbeat CPU 2 instructions: 160000003 cycles: 40008181 heartbeat IPC: 4 cumulative IPC: 3.999 (Simulation time: 02 hr 34 min 23 sec)
Heartbeat CPU 6 instructions: 160000001 cycles: 40008181 heartbeat IPC: 4 cumulative IPC: 3.999 (Simulation time: 02 hr 34 min 23 sec)
Heartbeat CPU 7 instructions: 160000002 cycles: 40008302 heartbeat IPC: 4 cumulative IPC: 3.999 (Simulation time: 02 hr 34 min 23 sec)
Heartbeat CPU 1 instructions: 110000016 cycles: 40864072 heartbeat IPC: 2.726 cumulative IPC: 2.692 (Simulation time: 02 hr 37 min 37 sec)
Heartbeat CPU 5 instructions: 110000016 cycles: 41016967 heartbeat IPC: 2.714 cumulative IPC: 2.682 (Simulation time: 02 hr 38 min 11 sec)
Heartbeat CPU 3 instructions: 170000002 cycles: 42508105 heartbeat IPC: 4 cumulative IPC: 3.999 (Simulation time: 02 hr 43 min 50 sec)
Heartbeat CPU 2 instructions: 170000003 cycles: 42508181 heartbeat IPC: 4 cumulative IPC: 3.999 (Simulation time: 02 hr 43 min 50 sec)
Heartbeat CPU 6 instructions: 170000001 cycles: 42508181 heartbeat IPC: 4 cumulative IPC: 3.999 (Simulation time: 02 hr 43 min 50 sec)
Heartbeat CPU 7 instructions: 170000002 cycles: 42508302 heartbeat IPC: 4 cumulative IPC: 3.999 (Simulation time: 02 hr 43 min 50 sec)
Heartbeat CPU 4 instructions: 40000005 cycles: 44446551 heartbeat IPC: 0.6471 cumulative IPC: 0.9 (Simulation time: 02 hr 51 min 06 sec)
Heartbeat CPU 0 instructions: 40000000 cycles: 44446827 heartbeat IPC: 0.6471 cumulative IPC: 0.9 (Simulation time: 02 hr 51 min 06 sec)
Heartbeat CPU 1 instructions: 120000018 cycles: 44590787 heartbeat IPC: 2.683 cumulative IPC: 2.691 (Simulation time: 02 hr 51 min 38 sec)
Heartbeat CPU 5 instructions: 120000018 cycles: 44758525 heartbeat IPC: 2.673 cumulative IPC: 2.681 (Simulation time: 02 hr 52 min 17 sec)
Heartbeat CPU 3 instructions: 180000002 cycles: 45008105 heartbeat IPC: 4 cumulative IPC: 3.999 (Simulation time: 02 hr 53 min 13 sec)
Heartbeat CPU 2 instructions: 180000003 cycles: 45008181 heartbeat IPC: 4 cumulative IPC: 3.999 (Simulation time: 02 hr 53 min 13 sec)
Heartbeat CPU 6 instructions: 180000001 cycles: 45008181 heartbeat IPC: 4 cumulative IPC: 3.999 (Simulation time: 02 hr 53 min 13 sec)
Heartbeat CPU 7 instructions: 180000002 cycles: 45008302 heartbeat IPC: 4 cumulative IPC: 3.999 (Simulation time: 02 hr 53 min 13 sec)
Heartbeat CPU 3 instructions: 190000002 cycles: 47508105 heartbeat IPC: 4 cumulative IPC: 3.999 (Simulation time: 03 hr 02 min 23 sec)
Heartbeat CPU 2 instructions: 190000003 cycles: 47508181 heartbeat IPC: 4 cumulative IPC: 3.999 (Simulation time: 03 hr 02 min 23 sec)
Heartbeat CPU 6 instructions: 190000001 cycles: 47508181 heartbeat IPC: 4 cumulative IPC: 3.999 (Simulation time: 03 hr 02 min 23 sec)
Heartbeat CPU 7 instructions: 190000002 cycles: 47508302 heartbeat IPC: 4 cumulative IPC: 3.999 (Simulation time: 03 hr 02 min 23 sec)
Heartbeat CPU 1 instructions: 130000020 cycles: 48280510 heartbeat IPC: 2.71 cumulative IPC: 2.693 (Simulation time: 03 hr 05 min 15 sec)
Heartbeat CPU 5 instructions: 130000020 cycles: 48463433 heartbeat IPC: 2.699 cumulative IPC: 2.682 (Simulation time: 03 hr 05 min 57 sec)
Heartbeat CPU 3 instructions: 200000002 cycles: 50008105 heartbeat IPC: 4 cumulative IPC: 3.999 (Simulation time: 03 hr 11 min 38 sec)
Heartbeat CPU 2 instructions: 200000003 cycles: 50008181 heartbeat IPC: 4 cumulative IPC: 3.999 (Simulation time: 03 hr 11 min 38 sec)
Heartbeat CPU 6 instructions: 200000001 cycles: 50008181 heartbeat IPC: 4 cumulative IPC: 3.999 (Simulation time: 03 hr 11 min 38 sec)
Heartbeat CPU 7 instructions: 200000002 cycles: 50008302 heartbeat IPC: 4 cumulative IPC: 3.999 (Simulation time: 03 hr 11 min 38 sec)
Heartbeat CPU 1 instructions: 140000020 cycles: 51848283 heartbeat IPC: 2.803 cumulative IPC: 2.7 (Simulation time: 03 hr 18 min 16 sec)
Heartbeat CPU 5 instructions: 140000020 cycles: 52046307 heartbeat IPC: 2.791 cumulative IPC: 2.69 (Simulation time: 03 hr 19 min 00 sec)
Heartbeat CPU 3 instructions: 210000002 cycles: 52508105 heartbeat IPC: 4 cumulative IPC: 3.999 (Simulation time: 03 hr 20 min 46 sec)
Heartbeat CPU 2 instructions: 210000003 cycles: 52508181 heartbeat IPC: 4 cumulative IPC: 3.999 (Simulation time: 03 hr 20 min 46 sec)
Heartbeat CPU 6 instructions: 210000001 cycles: 52508181 heartbeat IPC: 4 cumulative IPC: 3.999 (Simulation time: 03 hr 20 min 46 sec)
Heartbeat CPU 7 instructions: 210000002 cycles: 52508302 heartbeat IPC: 4 cumulative IPC: 3.999 (Simulation time: 03 hr 20 min 46 sec)
Heartbeat CPU 3 instructions: 220000002 cycles: 55008105 heartbeat IPC: 4 cumulative IPC: 3.999 (Simulation time: 03 hr 30 min 21 sec)
Heartbeat CPU 2 instructions: 220000003 cycles: 55008181 heartbeat IPC: 4 cumulative IPC: 3.999 (Simulation time: 03 hr 30 min 21 sec)
Heartbeat CPU 6 instructions: 220000001 cycles: 55008181 heartbeat IPC: 4 cumulative IPC: 3.999 (Simulation time: 03 hr 30 min 21 sec)
Heartbeat CPU 7 instructions: 220000002 cycles: 55008302 heartbeat IPC: 4 cumulative IPC: 3.999 (Simulation time: 03 hr 30 min 21 sec)
Heartbeat CPU 1 instructions: 150000023 cycles: 55807132 heartbeat IPC: 2.526 cumulative IPC: 2.688 (Simulation time: 03 hr 33 min 31 sec)
Heartbeat CPU 5 instructions: 150000023 cycles: 56004879 heartbeat IPC: 2.526 cumulative IPC: 2.678 (Simulation time: 03 hr 34 min 19 sec)
Heartbeat CPU 3 instructions: 230000002 cycles: 57508105 heartbeat IPC: 4 cumulative IPC: 3.999 (Simulation time: 03 hr 39 min 12 sec)
Heartbeat CPU 2 instructions: 230000003 cycles: 57508181 heartbeat IPC: 4 cumulative IPC: 3.999 (Simulation time: 03 hr 39 min 12 sec)
Heartbeat CPU 6 instructions: 230000001 cycles: 57508181 heartbeat IPC: 4 cumulative IPC: 3.999 (Simulation time: 03 hr 39 min 12 sec)
Heartbeat CPU 7 instructions: 230000002 cycles: 57508302 heartbeat IPC: 4 cumulative IPC: 3.999 (Simulation time: 03 hr 39 min 12 sec)
Heartbeat CPU 1 instructions: 160000023 cycles: 59640167 heartbeat IPC: 2.609 cumulative IPC: 2.683 (Simulation time: 03 hr 47 min 15 sec)
Heartbeat CPU 5 instructions: 160000023 cycles: 59853238 heartbeat IPC: 2.599 cumulative IPC: 2.673 (Simulation time: 03 hr 48 min 04 sec)
Heartbeat CPU 3 instructions: 240000002 cycles: 60008105 heartbeat IPC: 4 cumulative IPC: 3.999 (Simulation time: 03 hr 48 min 41 sec)
Heartbeat CPU 2 instructions: 240000003 cycles: 60008181 heartbeat IPC: 4 cumulative IPC: 3.999 (Simulation time: 03 hr 48 min 41 sec)
Heartbeat CPU 6 instructions: 240000001 cycles: 60008181 heartbeat IPC: 4 cumulative IPC: 3.999 (Simulation time: 03 hr 48 min 41 sec)
Heartbeat CPU 7 instructions: 240000002 cycles: 60008302 heartbeat IPC: 4 cumulative IPC: 3.999 (Simulation time: 03 hr 48 min 41 sec)
Warmup finished CPU 4 instructions: 50000000 cycles: 60116044 cumulative IPC: 0.8317 (Simulation time: 03 hr 49 min 05 sec)
Heartbeat CPU 4 instructions: 50000005 cycles: 60116055 heartbeat IPC: 0.6382 cumulative IPC: 0.8317 (Simulation time: 03 hr 49 min 05 sec)
Heartbeat CPU 0 instructions: 50000000 cycles: 60116262 heartbeat IPC: 0.6382 cumulative IPC: 0.8317 (Simulation time: 03 hr 49 min 05 sec)
Warmup finished CPU 0 instructions: 50000000 cycles: 60116262 cumulative IPC: 0.8317 (Simulation time: 03 hr 49 min 05 sec)
Warmup complete CPU 7 instructions: 240431842 cycles: 60116262 cumulative IPC: 3.999 (Simulation time: 03 hr 49 min 05 sec)
Warmup complete CPU 6 instructions: 240432325 cycles: 60116262 cumulative IPC: 3.999 (Simulation time: 03 hr 49 min 05 sec)
Warmup complete CPU 5 instructions: 160713512 cycles: 60116262 cumulative IPC: 2.673 (Simulation time: 03 hr 49 min 05 sec)
Warmup complete CPU 4 instructions: 50000192 cycles: 60116262 cumulative IPC: 0.8317 (Simulation time: 03 hr 49 min 05 sec)
Warmup complete CPU 3 instructions: 240432630 cycles: 60116262 cumulative IPC: 3.999 (Simulation time: 03 hr 49 min 05 sec)
Warmup complete CPU 2 instructions: 240432327 cycles: 60116262 cumulative IPC: 3.999 (Simulation time: 03 hr 49 min 05 sec)
Warmup complete CPU 1 instructions: 161303745 cycles: 60116262 cumulative IPC: 2.683 (Simulation time: 03 hr 49 min 05 sec)
Warmup complete CPU 0 instructions: 50000000 cycles: 60116262 cumulative IPC: 0.8317 (Simulation time: 03 hr 49 min 05 sec)
Heartbeat CPU 3 instructions: 250000002 cycles: 62508105 heartbeat IPC: 4 cumulative IPC: 4 (Simulation time: 03 hr 58 min 12 sec)
Heartbeat CPU 2 instructions: 250000003 cycles: 62508181 heartbeat IPC: 4 cumulative IPC: 4 (Simulation time: 03 hr 58 min 12 sec)
Heartbeat CPU 6 instructions: 250000001 cycles: 62508181 heartbeat IPC: 4 cumulative IPC: 4 (Simulation time: 03 hr 58 min 12 sec)
Heartbeat CPU 7 instructions: 250000002 cycles: 62508302 heartbeat IPC: 4 cumulative IPC: 4 (Simulation time: 03 hr 58 min 12 sec)
Heartbeat CPU 1 instructions: 170000026 cycles: 64545213 heartbeat IPC: 2.039 cumulative IPC: 1.964 (Simulation time: 04 hr 06 min 02 sec)
Heartbeat CPU 5 instructions: 170000026 cycles: 64545251 heartbeat IPC: 2.131 cumulative IPC: 2.097 (Simulation time: 04 hr 06 min 02 sec)
Heartbeat CPU 3 instructions: 260000002 cycles: 65008105 heartbeat IPC: 4 cumulative IPC: 4 (Simulation time: 04 hr 07 min 43 sec)
Heartbeat CPU 2 instructions: 260000003 cycles: 65008181 heartbeat IPC: 4 cumulative IPC: 4 (Simulation time: 04 hr 07 min 43 sec)
Heartbeat CPU 6 instructions: 260000001 cycles: 65008181 heartbeat IPC: 4 cumulative IPC: 4 (Simulation time: 04 hr 07 min 43 sec)
Heartbeat CPU 7 instructions: 260000002 cycles: 65008302 heartbeat IPC: 4 cumulative IPC: 4 (Simulation time: 04 hr 07 min 43 sec)
Heartbeat CPU 3 instructions: 270000002 cycles: 67508105 heartbeat IPC: 4 cumulative IPC: 4 (Simulation time: 04 hr 16 min 54 sec)
Heartbeat CPU 2 instructions: 270000003 cycles: 67508181 heartbeat IPC: 4 cumulative IPC: 4 (Simulation time: 04 hr 16 min 54 sec)
Heartbeat CPU 6 instructions: 270000001 cycles: 67508181 heartbeat IPC: 4 cumulative IPC: 4 (Simulation time: 04 hr 16 min 54 sec)
Heartbeat CPU 7 instructions: 270000002 cycles: 67508302 heartbeat IPC: 4 cumulative IPC: 4 (Simulation time: 04 hr 16 min 54 sec)
Heartbeat CPU 1 instructions: 180000028 cycles: 69530374 heartbeat IPC: 2.006 cumulative IPC: 1.986 (Simulation time: 04 hr 24 min 05 sec)
Heartbeat CPU 5 instructions: 180000028 cycles: 69530387 heartbeat IPC: 2.006 cumulative IPC: 2.049 (Simulation time: 04 hr 24 min 05 sec)
Heartbeat CPU 3 instructions: 280000002 cycles: 70008105 heartbeat IPC: 4 cumulative IPC: 4 (Simulation time: 04 hr 25 min 57 sec)
Heartbeat CPU 2 instructions: 280000003 cycles: 70008181 heartbeat IPC: 4 cumulative IPC: 4 (Simulation time: 04 hr 25 min 57 sec)
Heartbeat CPU 6 instructions: 280000001 cycles: 70008181 heartbeat IPC: 4 cumulative IPC: 4 (Simulation time: 04 hr 25 min 57 sec)
Heartbeat CPU 7 instructions: 280000002 cycles: 70008302 heartbeat IPC: 4 cumulative IPC: 4 (Simulation time: 04 hr 25 min 57 sec)
Heartbeat CPU 3 instructions: 290000002 cycles: 72508105 heartbeat IPC: 4 cumulative IPC: 4 (Simulation time: 04 hr 35 min 43 sec)
Heartbeat CPU 2 instructions: 290000003 cycles: 72508181 heartbeat IPC: 4 cumulative IPC: 4 (Simulation time: 04 hr 35 min 43 sec)
Heartbeat CPU 6 instructions: 290000001 cycles: 72508181 heartbeat IPC: 4 cumulative IPC: 4 (Simulation time: 04 hr 35 min 43 sec)
Heartbeat CPU 7 instructions: 290000002 cycles: 72508302 heartbeat IPC: 4 cumulative IPC: 4 (Simulation time: 04 hr 35 min 43 sec)
Heartbeat CPU 1 instructions: 190000028 cycles: 74390753 heartbeat IPC: 2.057 cumulative IPC: 2.01 (Simulation time: 04 hr 43 min 13 sec)
Heartbeat CPU 5 instructions: 190000028 cycles: 74390785 heartbeat IPC: 2.057 cumulative IPC: 2.052 (Simulation time: 04 hr 43 min 13 sec)
Heartbeat CPU 3 instructions: 300000002 cycles: 75008105 heartbeat IPC: 4 cumulative IPC: 4 (Simulation time: 04 hr 45 min 43 sec)
Heartbeat CPU 2 instructions: 300000003 cycles: 75008181 heartbeat IPC: 4 cumulative IPC: 4 (Simulation time: 04 hr 45 min 43 sec)
Heartbeat CPU 6 instructions: 300000001 cycles: 75008181 heartbeat IPC: 4 cumulative IPC: 4 (Simulation time: 04 hr 45 min 43 sec)
Heartbeat CPU 7 instructions: 300000002 cycles: 75008302 heartbeat IPC: 4 cumulative IPC: 4 (Simulation time: 04 hr 45 min 43 sec)
Heartbeat CPU 3 instructions: 310000002 cycles: 77508105 heartbeat IPC: 4 cumulative IPC: 4 (Simulation time: 04 hr 55 min 56 sec)
Heartbeat CPU 2 instructions: 310000003 cycles: 77508181 heartbeat IPC: 4 cumulative IPC: 4 (Simulation time: 04 hr 55 min 56 sec)
Heartbeat CPU 6 instructions: 310000001 cycles: 77508181 heartbeat IPC: 4 cumulative IPC: 4 (Simulation time: 04 hr 55 min 56 sec)
Heartbeat CPU 7 instructions: 310000002 cycles: 77508302 heartbeat IPC: 4 cumulative IPC: 4 (Simulation time: 04 hr 55 min 56 sec)
Heartbeat CPU 1 instructions: 200000028 cycles: 79101635 heartbeat IPC: 2.123 cumulative IPC: 2.038 (Simulation time: 05 hr 02 min 20 sec)
Heartbeat CPU 5 instructions: 200000028 cycles: 79101800 heartbeat IPC: 2.123 cumulative IPC: 2.069 (Simulation time: 05 hr 02 min 20 sec)
Heartbeat CPU 0 instructions: 60000000 cycles: 79512063 heartbeat IPC: 0.5156 cumulative IPC: 0.5156 (Simulation time: 05 hr 03 min 53 sec)
Heartbeat CPU 4 instructions: 60000005 cycles: 79512209 heartbeat IPC: 0.5156 cumulative IPC: 0.5156 (Simulation time: 05 hr 03 min 53 sec)
Heartbeat CPU 3 instructions: 320000002 cycles: 80008105 heartbeat IPC: 4 cumulative IPC: 4 (Simulation time: 05 hr 05 min 47 sec)
Heartbeat CPU 2 instructions: 320000003 cycles: 80008181 heartbeat IPC: 4 cumulative IPC: 4 (Simulation time: 05 hr 05 min 47 sec)
Heartbeat CPU 6 instructions: 320000001 cycles: 80008181 heartbeat IPC: 4 cumulative IPC: 4 (Simulation time: 05 hr 05 min 47 sec)
Heartbeat CPU 7 instructions: 320000002 cycles: 80008302 heartbeat IPC: 4 cumulative IPC: 4 (Simulation time: 05 hr 05 min 47 sec)
Heartbeat CPU 3 instructions: 330000002 cycles: 82508105 heartbeat IPC: 4 cumulative IPC: 4 (Simulation time: 05 hr 14 min 59 sec)
Heartbeat CPU 2 instructions: 330000003 cycles: 82508181 heartbeat IPC: 4 cumulative IPC: 4 (Simulation time: 05 hr 14 min 59 sec)
Heartbeat CPU 6 instructions: 330000001 cycles: 82508181 heartbeat IPC: 4 cumulative IPC: 4 (Simulation time: 05 hr 14 min 59 sec)
Heartbeat CPU 7 instructions: 330000002 cycles: 82508302 heartbeat IPC: 4 cumulative IPC: 4 (Simulation time: 05 hr 14 min 59 sec)
Heartbeat CPU 5 instructions: 210000031 cycles: 83970332 heartbeat IPC: 2.054 cumulative IPC: 2.066 (Simulation time: 05 hr 20 min 20 sec)
Heartbeat CPU 1 instructions: 210000031 cycles: 83970332 heartbeat IPC: 2.054 cumulative IPC: 2.041 (Simulation time: 05 hr 20 min 20 sec)
Heartbeat CPU 3 instructions: 340000002 cycles: 85008105 heartbeat IPC: 4 cumulative IPC: 4 (Simulation time: 05 hr 24 min 11 sec)
Heartbeat CPU 2 instructions: 340000003 cycles: 85008181 heartbeat IPC: 4 cumulative IPC: 4 (Simulation time: 05 hr 24 min 11 sec)
Heartbeat CPU 6 instructions: 340000001 cycles: 85008181 heartbeat IPC: 4 cumulative IPC: 4 (Simulation time: 05 hr 24 min 11 sec)
Heartbeat CPU 7 instructions: 340000002 cycles: 85008302 heartbeat IPC: 4 cumulative IPC: 4 (Simulation time: 05 hr 24 min 11 sec)
Simulation finished CPU 7 instructions: 100000000 cycles: 25000000 cumulative IPC: 4 (Simulation time: 05 hr 24 min 36 sec)
Simulation finished CPU 6 instructions: 100000000 cycles: 25000000 cumulative IPC: 4 (Simulation time: 05 hr 24 min 36 sec)
Simulation finished CPU 3 instructions: 100000000 cycles: 25000000 cumulative IPC: 4 (Simulation time: 05 hr 24 min 36 sec)
Simulation finished CPU 2 instructions: 100000000 cycles: 25000000 cumulative IPC: 4 (Simulation time: 05 hr 24 min 36 sec)
Heartbeat CPU 3 instructions: 350000002 cycles: 87508105 heartbeat IPC: 4 cumulative IPC: 4 (Simulation time: 05 hr 33 min 33 sec)
Heartbeat CPU 2 instructions: 350000003 cycles: 87508181 heartbeat IPC: 4 cumulative IPC: 4 (Simulation time: 05 hr 33 min 33 sec)
Heartbeat CPU 6 instructions: 350000001 cycles: 87508181 heartbeat IPC: 4 cumulative IPC: 4 (Simulation time: 05 hr 33 min 33 sec)
Heartbeat CPU 7 instructions: 350000002 cycles: 87508302 heartbeat IPC: 4 cumulative IPC: 4 (Simulation time: 05 hr 33 min 33 sec)
Heartbeat CPU 1 instructions: 220000031 cycles: 88919945 heartbeat IPC: 2.02 cumulative IPC: 2.038 (Simulation time: 05 hr 38 min 54 sec)
Heartbeat CPU 5 instructions: 220000031 cycles: 88920049 heartbeat IPC: 2.02 cumulative IPC: 2.058 (Simulation time: 05 hr 38 min 54 sec)
Heartbeat CPU 3 instructions: 360000002 cycles: 90008105 heartbeat IPC: 4 cumulative IPC: 4 (Simulation time: 05 hr 42 min 55 sec)
Heartbeat CPU 2 instructions: 360000003 cycles: 90008181 heartbeat IPC: 4 cumulative IPC: 4 (Simulation time: 05 hr 42 min 55 sec)
Heartbeat CPU 6 instructions: 360000001 cycles: 90008181 heartbeat IPC: 4 cumulative IPC: 4 (Simulation time: 05 hr 42 min 55 sec)
Heartbeat CPU 7 instructions: 360000002 cycles: 90008302 heartbeat IPC: 4 cumulative IPC: 4 (Simulation time: 05 hr 42 min 55 sec)
Heartbeat CPU 3 instructions: 370000002 cycles: 92508105 heartbeat IPC: 4 cumulative IPC: 4 (Simulation time: 05 hr 51 min 48 sec)
Heartbeat CPU 2 instructions: 370000003 cycles: 92508181 heartbeat IPC: 4 cumulative IPC: 4 (Simulation time: 05 hr 51 min 48 sec)
Heartbeat CPU 6 instructions: 370000001 cycles: 92508181 heartbeat IPC: 4 cumulative IPC: 4 (Simulation time: 05 hr 51 min 48 sec)
Heartbeat CPU 7 instructions: 370000002 cycles: 92508302 heartbeat IPC: 4 cumulative IPC: 4 (Simulation time: 05 hr 51 min 48 sec)
Heartbeat CPU 1 instructions: 230000032 cycles: 93798947 heartbeat IPC: 2.05 cumulative IPC: 2.04 (Simulation time: 05 hr 56 min 32 sec)
Heartbeat CPU 5 instructions: 230000034 cycles: 93799109 heartbeat IPC: 2.05 cumulative IPC: 2.057 (Simulation time: 05 hr 56 min 32 sec)
Heartbeat CPU 3 instructions: 380000002 cycles: 95008105 heartbeat IPC: 4 cumulative IPC: 4 (Simulation time: 06 hr 01 min 01 sec)
Heartbeat CPU 2 instructions: 380000003 cycles: 95008181 heartbeat IPC: 4 cumulative IPC: 4 (Simulation time: 06 hr 01 min 01 sec)
Heartbeat CPU 6 instructions: 380000001 cycles: 95008181 heartbeat IPC: 4 cumulative IPC: 4 (Simulation time: 06 hr 01 min 01 sec)
Heartbeat CPU 7 instructions: 380000002 cycles: 95008302 heartbeat IPC: 4 cumulative IPC: 4 (Simulation time: 06 hr 01 min 01 sec)
Heartbeat CPU 3 instructions: 390000002 cycles: 97508105 heartbeat IPC: 4 cumulative IPC: 4 (Simulation time: 06 hr 10 min 12 sec)
Heartbeat CPU 2 instructions: 390000003 cycles: 97508181 heartbeat IPC: 4 cumulative IPC: 4 (Simulation time: 06 hr 10 min 12 sec)
Heartbeat CPU 6 instructions: 390000001 cycles: 97508181 heartbeat IPC: 4 cumulative IPC: 4 (Simulation time: 06 hr 10 min 12 sec)
Heartbeat CPU 7 instructions: 390000002 cycles: 97508302 heartbeat IPC: 4 cumulative IPC: 4 (Simulation time: 06 hr 10 min 12 sec)
Heartbeat CPU 0 instructions: 70000003 cycles: 98615731 heartbeat IPC: 0.5235 cumulative IPC: 0.5195 (Simulation time: 06 hr 14 min 11 sec)
Heartbeat CPU 4 instructions: 70000005 cycles: 98615847 heartbeat IPC: 0.5235 cumulative IPC: 0.5195 (Simulation time: 06 hr 14 min 11 sec)
Heartbeat CPU 1 instructions: 240000033 cycles: 98697011 heartbeat IPC: 2.042 cumulative IPC: 2.04 (Simulation time: 06 hr 14 min 29 sec)
Heartbeat CPU 5 instructions: 240000037 cycles: 98697012 heartbeat IPC: 2.042 cumulative IPC: 2.055 (Simulation time: 06 hr 14 min 29 sec)
Heartbeat CPU 3 instructions: 400000002 cycles: 100008105 heartbeat IPC: 4 cumulative IPC: 4 (Simulation time: 06 hr 19 min 20 sec)
Heartbeat CPU 2 instructions: 400000003 cycles: 100008181 heartbeat IPC: 4 cumulative IPC: 4 (Simulation time: 06 hr 19 min 20 sec)
Heartbeat CPU 6 instructions: 400000001 cycles: 100008181 heartbeat IPC: 4 cumulative IPC: 4 (Simulation time: 06 hr 19 min 20 sec)
Heartbeat CPU 7 instructions: 400000002 cycles: 100008302 heartbeat IPC: 4 cumulative IPC: 4 (Simulation time: 06 hr 19 min 20 sec)
Heartbeat CPU 2 instructions: 410000003 cycles: 102508181 heartbeat IPC: 4 cumulative IPC: 4 (Simulation time: 06 hr 28 min 38 sec)
Heartbeat CPU 6 instructions: 410000001 cycles: 102508181 heartbeat IPC: 4 cumulative IPC: 4 (Simulation time: 06 hr 28 min 38 sec)
Heartbeat CPU 3 instructions: 410000004 cycles: 102508235 heartbeat IPC: 4 cumulative IPC: 4 (Simulation time: 06 hr 28 min 38 sec)
Heartbeat CPU 7 instructions: 410000002 cycles: 102508302 heartbeat IPC: 4 cumulative IPC: 4 (Simulation time: 06 hr 28 min 38 sec)
Heartbeat CPU 1 instructions: 250000035 cycles: 103705685 heartbeat IPC: 1.997 cumulative IPC: 2.035 (Simulation time: 06 hr 32 min 56 sec)
Heartbeat CPU 5 instructions: 250000037 cycles: 103705963 heartbeat IPC: 1.996 cumulative IPC: 2.048 (Simulation time: 06 hr 32 min 56 sec)
Heartbeat CPU 3 instructions: 420000004 cycles: 105008235 heartbeat IPC: 4 cumulative IPC: 4 (Simulation time: 06 hr 37 min 35 sec)
Heartbeat CPU 6 instructions: 420000004 cycles: 105008243 heartbeat IPC: 4 cumulative IPC: 4 (Simulation time: 06 hr 37 min 35 sec)
Heartbeat CPU 2 instructions: 420000004 cycles: 105008249 heartbeat IPC: 4 cumulative IPC: 4 (Simulation time: 06 hr 37 min 35 sec)
Heartbeat CPU 7 instructions: 420000002 cycles: 105008302 heartbeat IPC: 4 cumulative IPC: 4 (Simulation time: 06 hr 37 min 35 sec)
Heartbeat CPU 3 instructions: 430000004 cycles: 107508235 heartbeat IPC: 4 cumulative IPC: 4 (Simulation time: 06 hr 46 min 42 sec)
Heartbeat CPU 6 instructions: 430000004 cycles: 107508243 heartbeat IPC: 4 cumulative IPC: 4 (Simulation time: 06 hr 46 min 42 sec)
Heartbeat CPU 2 instructions: 430000004 cycles: 107508249 heartbeat IPC: 4 cumulative IPC: 4 (Simulation time: 06 hr 46 min 42 sec)
Heartbeat CPU 7 instructions: 430000002 cycles: 107508302 heartbeat IPC: 4 cumulative IPC: 4 (Simulation time: 06 hr 46 min 42 sec)
Heartbeat CPU 1 instructions: 260000038 cycles: 108752965 heartbeat IPC: 1.981 cumulative IPC: 2.029 (Simulation time: 06 hr 51 min 09 sec)
Heartbeat CPU 5 instructions: 260000038 cycles: 108752972 heartbeat IPC: 1.981 cumulative IPC: 2.041 (Simulation time: 06 hr 51 min 09 sec)
Simulation finished CPU 5 instructions: 100000001 cycles: 49024818 cumulative IPC: 2.04 (Simulation time: 06 hr 52 min 30 sec)
Simulation finished CPU 1 instructions: 100000003 cycles: 49314868 cumulative IPC: 2.028 (Simulation time: 06 hr 53 min 31 sec)
Heartbeat CPU 3 instructions: 440000004 cycles: 110008235 heartbeat IPC: 4 cumulative IPC: 4 (Simulation time: 06 hr 55 min 35 sec)
Heartbeat CPU 6 instructions: 440000004 cycles: 110008243 heartbeat IPC: 4 cumulative IPC: 4 (Simulation time: 06 hr 55 min 35 sec)
Heartbeat CPU 2 instructions: 440000004 cycles: 110008249 heartbeat IPC: 4 cumulative IPC: 4 (Simulation time: 06 hr 55 min 35 sec)
Heartbeat CPU 7 instructions: 440000002 cycles: 110008302 heartbeat IPC: 4 cumulative IPC: 4 (Simulation time: 06 hr 55 min 35 sec)
Heartbeat CPU 3 instructions: 450000004 cycles: 112508235 heartbeat IPC: 4 cumulative IPC: 4 (Simulation time: 07 hr 04 min 56 sec)
Heartbeat CPU 6 instructions: 450000004 cycles: 112508243 heartbeat IPC: 4 cumulative IPC: 4 (Simulation time: 07 hr 04 min 56 sec)
Heartbeat CPU 2 instructions: 450000004 cycles: 112508249 heartbeat IPC: 4 cumulative IPC: 4 (Simulation time: 07 hr 04 min 56 sec)
Heartbeat CPU 7 instructions: 450000002 cycles: 112508302 heartbeat IPC: 4 cumulative IPC: 4 (Simulation time: 07 hr 04 min 56 sec)
Heartbeat CPU 1 instructions: 270000040 cycles: 113743405 heartbeat IPC: 2.004 cumulative IPC: 2.027 (Simulation time: 07 hr 09 min 34 sec)
Heartbeat CPU 5 instructions: 270000040 cycles: 113743407 heartbeat IPC: 2.004 cumulative IPC: 2.038 (Simulation time: 07 hr 09 min 34 sec)
Heartbeat CPU 3 instructions: 460000004 cycles: 115008235 heartbeat IPC: 4 cumulative IPC: 4 (Simulation time: 07 hr 14 min 19 sec)
Heartbeat CPU 6 instructions: 460000004 cycles: 115008243 heartbeat IPC: 4 cumulative IPC: 4 (Simulation time: 07 hr 14 min 19 sec)
Heartbeat CPU 2 instructions: 460000004 cycles: 115008249 heartbeat IPC: 4 cumulative IPC: 4 (Simulation time: 07 hr 14 min 19 sec)
Heartbeat CPU 7 instructions: 460000002 cycles: 115008302 heartbeat IPC: 4 cumulative IPC: 4 (Simulation time: 07 hr 14 min 19 sec)
Heartbeat CPU 0 instructions: 80000004 cycles: 117161662 heartbeat IPC: 0.5392 cumulative IPC: 0.5259 (Simulation time: 07 hr 22 min 20 sec)
Heartbeat CPU 4 instructions: 80000009 cycles: 117161793 heartbeat IPC: 0.5392 cumulative IPC: 0.5259 (Simulation time: 07 hr 22 min 20 sec)
Heartbeat CPU 3 instructions: 470000004 cycles: 117508235 heartbeat IPC: 4 cumulative IPC: 4 (Simulation time: 07 hr 23 min 34 sec)
Heartbeat CPU 6 instructions: 470000004 cycles: 117508243 heartbeat IPC: 4 cumulative IPC: 4 (Simulation time: 07 hr 23 min 34 sec)
Heartbeat CPU 2 instructions: 470000004 cycles: 117508249 heartbeat IPC: 4 cumulative IPC: 4 (Simulation time: 07 hr 23 min 34 sec)
Heartbeat CPU 7 instructions: 470000002 cycles: 117508302 heartbeat IPC: 4 cumulative IPC: 4 (Simulation time: 07 hr 23 min 34 sec)
Heartbeat CPU 3 instructions: 480000004 cycles: 120008235 heartbeat IPC: 4 cumulative IPC: 4 (Simulation time: 07 hr 32 min 35 sec)
Heartbeat CPU 6 instructions: 480000004 cycles: 120008243 heartbeat IPC: 4 cumulative IPC: 4 (Simulation time: 07 hr 32 min 35 sec)
Heartbeat CPU 2 instructions: 480000004 cycles: 120008249 heartbeat IPC: 4 cumulative IPC: 4 (Simulation time: 07 hr 32 min 35 sec)
Heartbeat CPU 7 instructions: 480000002 cycles: 120008302 heartbeat IPC: 4 cumulative IPC: 4 (Simulation time: 07 hr 32 min 35 sec)
Heartbeat CPU 1 instructions: 280000042 cycles: 120154804 heartbeat IPC: 1.56 cumulative IPC: 1.977 (Simulation time: 07 hr 33 min 07 sec)
Heartbeat CPU 5 instructions: 280000042 cycles: 120154810 heartbeat IPC: 1.56 cumulative IPC: 1.987 (Simulation time: 07 hr 33 min 07 sec)
Heartbeat CPU 3 instructions: 490000004 cycles: 122508235 heartbeat IPC: 4 cumulative IPC: 4 (Simulation time: 07 hr 41 min 43 sec)
Heartbeat CPU 6 instructions: 490000004 cycles: 122508243 heartbeat IPC: 4 cumulative IPC: 4 (Simulation time: 07 hr 41 min 43 sec)
Heartbeat CPU 2 instructions: 490000004 cycles: 122508249 heartbeat IPC: 4 cumulative IPC: 4 (Simulation time: 07 hr 41 min 43 sec)
Heartbeat CPU 7 instructions: 490000002 cycles: 122508302 heartbeat IPC: 4 cumulative IPC: 4 (Simulation time: 07 hr 41 min 43 sec)
Heartbeat CPU 3 instructions: 500000004 cycles: 125008235 heartbeat IPC: 4 cumulative IPC: 4 (Simulation time: 07 hr 50 min 40 sec)
Heartbeat CPU 6 instructions: 500000004 cycles: 125008243 heartbeat IPC: 4 cumulative IPC: 4 (Simulation time: 07 hr 50 min 40 sec)
Heartbeat CPU 2 instructions: 500000004 cycles: 125008249 heartbeat IPC: 4 cumulative IPC: 4 (Simulation time: 07 hr 50 min 40 sec)
Heartbeat CPU 7 instructions: 500000002 cycles: 125008302 heartbeat IPC: 4 cumulative IPC: 4 (Simulation time: 07 hr 50 min 40 sec)
Heartbeat CPU 1 instructions: 290000042 cycles: 126945881 heartbeat IPC: 1.473 cumulative IPC: 1.926 (Simulation time: 07 hr 57 min 45 sec)
Heartbeat CPU 5 instructions: 290000042 cycles: 126945934 heartbeat IPC: 1.473 cumulative IPC: 1.935 (Simulation time: 07 hr 57 min 45 sec)
Heartbeat CPU 3 instructions: 510000004 cycles: 127508235 heartbeat IPC: 4 cumulative IPC: 4 (Simulation time: 07 hr 59 min 48 sec)
Heartbeat CPU 6 instructions: 510000004 cycles: 127508243 heartbeat IPC: 4 cumulative IPC: 4 (Simulation time: 07 hr 59 min 48 sec)
Heartbeat CPU 2 instructions: 510000004 cycles: 127508249 heartbeat IPC: 4 cumulative IPC: 4 (Simulation time: 07 hr 59 min 48 sec)
Heartbeat CPU 7 instructions: 510000002 cycles: 127508302 heartbeat IPC: 4 cumulative IPC: 4 (Simulation time: 07 hr 59 min 48 sec)
Heartbeat CPU 3 instructions: 520000004 cycles: 130008235 heartbeat IPC: 4 cumulative IPC: 4 (Simulation time: 08 hr 09 min 07 sec)
Heartbeat CPU 6 instructions: 520000004 cycles: 130008243 heartbeat IPC: 4 cumulative IPC: 4 (Simulation time: 08 hr 09 min 07 sec)
Heartbeat CPU 2 instructions: 520000004 cycles: 130008249 heartbeat IPC: 4 cumulative IPC: 4 (Simulation time: 08 hr 09 min 07 sec)
Heartbeat CPU 7 instructions: 520000002 cycles: 130008302 heartbeat IPC: 4 cumulative IPC: 4 (Simulation time: 08 hr 09 min 07 sec)
Heartbeat CPU 1 instructions: 300000043 cycles: 132116006 heartbeat IPC: 1.934 cumulative IPC: 1.926 (Simulation time: 08 hr 16 min 47 sec)
Heartbeat CPU 5 instructions: 300000043 cycles: 132116021 heartbeat IPC: 1.934 cumulative IPC: 1.935 (Simulation time: 08 hr 16 min 47 sec)
Heartbeat CPU 3 instructions: 530000004 cycles: 132508235 heartbeat IPC: 4 cumulative IPC: 4 (Simulation time: 08 hr 18 min 15 sec)
Heartbeat CPU 6 instructions: 530000004 cycles: 132508243 heartbeat IPC: 4 cumulative IPC: 4 (Simulation time: 08 hr 18 min 15 sec)
Heartbeat CPU 2 instructions: 530000004 cycles: 132508249 heartbeat IPC: 4 cumulative IPC: 4 (Simulation time: 08 hr 18 min 15 sec)
Heartbeat CPU 7 instructions: 530000002 cycles: 132508302 heartbeat IPC: 4 cumulative IPC: 4 (Simulation time: 08 hr 18 min 15 sec)
*** Reached end of trace: (7, "/home/harshraj/COALESCE-Hashed-Perceptron-Cache-Replacement-Policy/simulator/traces/barnes_4t3.champsimtrace")
*** Reached end of trace: (3, "/home/harshraj/COALESCE-Hashed-Perceptron-Cache-Replacement-Policy/simulator/traces/barnes_4t3.champsimtrace")
Heartbeat CPU 6 instructions: 540000004 cycles: 135008243 heartbeat IPC: 4 cumulative IPC: 4 (Simulation time: 08 hr 27 min 48 sec)
Heartbeat CPU 2 instructions: 540000004 cycles: 135008249 heartbeat IPC: 4 cumulative IPC: 4 (Simulation time: 08 hr 27 min 48 sec)
Heartbeat CPU 3 instructions: 540000006 cycles: 135016275 heartbeat IPC: 3.987 cumulative IPC: 4 (Simulation time: 08 hr 27 min 50 sec)
Heartbeat CPU 7 instructions: 540000002 cycles: 135016284 heartbeat IPC: 3.987 cumulative IPC: 4 (Simulation time: 08 hr 27 min 50 sec)
Heartbeat CPU 0 instructions: 90000005 cycles: 136546269 heartbeat IPC: 0.5159 cumulative IPC: 0.5234 (Simulation time: 08 hr 33 min 24 sec)
Heartbeat CPU 4 instructions: 90000010 cycles: 136546271 heartbeat IPC: 0.5159 cumulative IPC: 0.5234 (Simulation time: 08 hr 33 min 24 sec)
Heartbeat CPU 1 instructions: 310000043 cycles: 137018675 heartbeat IPC: 2.04 cumulative IPC: 1.934 (Simulation time: 08 hr 35 min 01 sec)
Heartbeat CPU 5 instructions: 310000043 cycles: 137018716 heartbeat IPC: 2.04 cumulative IPC: 1.941 (Simulation time: 08 hr 35 min 01 sec)
Heartbeat CPU 6 instructions: 550000004 cycles: 137508243 heartbeat IPC: 4 cumulative IPC: 4 (Simulation time: 08 hr 36 min 51 sec)
Heartbeat CPU 2 instructions: 550000004 cycles: 137508249 heartbeat IPC: 4 cumulative IPC: 4 (Simulation time: 08 hr 36 min 51 sec)
Heartbeat CPU 3 instructions: 550000006 cycles: 137516275 heartbeat IPC: 4 cumulative IPC: 4 (Simulation time: 08 hr 36 min 53 sec)
Heartbeat CPU 7 instructions: 550000002 cycles: 137516284 heartbeat IPC: 4 cumulative IPC: 4 (Simulation time: 08 hr 36 min 53 sec)
*** Reached end of trace: (6, "/home/harshraj/COALESCE-Hashed-Perceptron-Cache-Replacement-Policy/simulator/traces/barnes_4t2.champsimtrace")
*** Reached end of trace: (2, "/home/harshraj/COALESCE-Hashed-Perceptron-Cache-Replacement-Policy/simulator/traces/barnes_4t2.champsimtrace")
Heartbeat CPU 6 instructions: 560000007 cycles: 140015520 heartbeat IPC: 3.988 cumulative IPC: 4 (Simulation time: 08 hr 46 min 11 sec)
Heartbeat CPU 2 instructions: 560000005 cycles: 140015534 heartbeat IPC: 3.988 cumulative IPC: 4 (Simulation time: 08 hr 46 min 11 sec)
Heartbeat CPU 3 instructions: 560000006 cycles: 140016275 heartbeat IPC: 4 cumulative IPC: 4 (Simulation time: 08 hr 46 min 11 sec)
Heartbeat CPU 7 instructions: 560000002 cycles: 140016284 heartbeat IPC: 4 cumulative IPC: 4 (Simulation time: 08 hr 46 min 11 sec)
Heartbeat CPU 1 instructions: 320000046 cycles: 142188492 heartbeat IPC: 1.934 cumulative IPC: 1.934 (Simulation time: 08 hr 54 min 14 sec)
Heartbeat CPU 5 instructions: 320000046 cycles: 142188967 heartbeat IPC: 1.934 cumulative IPC: 1.941 (Simulation time: 08 hr 54 min 14 sec)
Heartbeat CPU 6 instructions: 570000007 cycles: 142515520 heartbeat IPC: 4 cumulative IPC: 4 (Simulation time: 08 hr 55 min 25 sec)
Heartbeat CPU 2 instructions: 570000005 cycles: 142515534 heartbeat IPC: 4 cumulative IPC: 4 (Simulation time: 08 hr 55 min 25 sec)
Heartbeat CPU 3 instructions: 570000006 cycles: 142516275 heartbeat IPC: 4 cumulative IPC: 4 (Simulation time: 08 hr 55 min 25 sec)
Heartbeat CPU 7 instructions: 570000002 cycles: 142516284 heartbeat IPC: 4 cumulative IPC: 4 (Simulation time: 08 hr 55 min 25 sec)
Heartbeat CPU 6 instructions: 580000007 cycles: 145015520 heartbeat IPC: 4 cumulative IPC: 4 (Simulation time: 09 hr 04 min 55 sec)
Heartbeat CPU 2 instructions: 580000005 cycles: 145015534 heartbeat IPC: 4 cumulative IPC: 4 (Simulation time: 09 hr 04 min 55 sec)
Heartbeat CPU 3 instructions: 580000006 cycles: 145016275 heartbeat IPC: 4 cumulative IPC: 4 (Simulation time: 09 hr 04 min 56 sec)
Heartbeat CPU 7 instructions: 580000002 cycles: 145016284 heartbeat IPC: 4 cumulative IPC: 4 (Simulation time: 09 hr 04 min 56 sec)
Heartbeat CPU 1 instructions: 330000048 cycles: 147268268 heartbeat IPC: 1.969 cumulative IPC: 1.936 (Simulation time: 09 hr 13 min 46 sec)
Heartbeat CPU 5 instructions: 330000048 cycles: 147268798 heartbeat IPC: 1.969 cumulative IPC: 1.942 (Simulation time: 09 hr 13 min 46 sec)
Heartbeat CPU 6 instructions: 590000007 cycles: 147515520 heartbeat IPC: 4 cumulative IPC: 4 (Simulation time: 09 hr 14 min 42 sec)
Heartbeat CPU 2 instructions: 590000005 cycles: 147515534 heartbeat IPC: 4 cumulative IPC: 4 (Simulation time: 09 hr 14 min 42 sec)
Heartbeat CPU 3 instructions: 590000006 cycles: 147516275 heartbeat IPC: 4 cumulative IPC: 4 (Simulation time: 09 hr 14 min 42 sec)
Heartbeat CPU 7 instructions: 590000002 cycles: 147516284 heartbeat IPC: 4 cumulative IPC: 4 (Simulation time: 09 hr 14 min 42 sec)
Heartbeat CPU 6 instructions: 600000007 cycles: 150015520 heartbeat IPC: 4 cumulative IPC: 4 (Simulation time: 09 hr 23 min 58 sec)
Heartbeat CPU 2 instructions: 600000005 cycles: 150015534 heartbeat IPC: 4 cumulative IPC: 4 (Simulation time: 09 hr 23 min 58 sec)
Heartbeat CPU 3 instructions: 600000006 cycles: 150016275 heartbeat IPC: 4 cumulative IPC: 4 (Simulation time: 09 hr 23 min 58 sec)
Heartbeat CPU 7 instructions: 600000002 cycles: 150016284 heartbeat IPC: 4 cumulative IPC: 4 (Simulation time: 09 hr 23 min 58 sec)
Heartbeat CPU 1 instructions: 340000051 cycles: 152102277 heartbeat IPC: 2.069 cumulative IPC: 1.943 (Simulation time: 09 hr 31 min 34 sec)
Heartbeat CPU 5 instructions: 340000051 cycles: 152102466 heartbeat IPC: 2.069 cumulative IPC: 1.949 (Simulation time: 09 hr 31 min 34 sec)
Heartbeat CPU 6 instructions: 610000007 cycles: 152515520 heartbeat IPC: 4 cumulative IPC: 4 (Simulation time: 09 hr 33 min 06 sec)
Heartbeat CPU 2 instructions: 610000005 cycles: 152515534 heartbeat IPC: 4 cumulative IPC: 4 (Simulation time: 09 hr 33 min 06 sec)
Heartbeat CPU 3 instructions: 610000006 cycles: 152516275 heartbeat IPC: 4 cumulative IPC: 4 (Simulation time: 09 hr 33 min 07 sec)
Heartbeat CPU 7 instructions: 610000002 cycles: 152516284 heartbeat IPC: 4 cumulative IPC: 4 (Simulation time: 09 hr 33 min 07 sec)
Heartbeat CPU 0 instructions: 100000005 cycles: 154906187 heartbeat IPC: 0.5447 cumulative IPC: 0.5275 (Simulation time: 09 hr 41 min 56 sec)
Heartbeat CPU 4 instructions: 100000010 cycles: 154906189 heartbeat IPC: 0.5447 cumulative IPC: 0.5275 (Simulation time: 09 hr 41 min 56 sec)
Heartbeat CPU 6 instructions: 620000007 cycles: 155015520 heartbeat IPC: 4 cumulative IPC: 4 (Simulation time: 09 hr 42 min 21 sec)
Heartbeat CPU 2 instructions: 620000005 cycles: 155015534 heartbeat IPC: 4 cumulative IPC: 4 (Simulation time: 09 hr 42 min 21 sec)
Heartbeat CPU 3 instructions: 620000006 cycles: 155016275 heartbeat IPC: 4 cumulative IPC: 4 (Simulation time: 09 hr 42 min 21 sec)
Heartbeat CPU 7 instructions: 620000002 cycles: 155016284 heartbeat IPC: 4 cumulative IPC: 4 (Simulation time: 09 hr 42 min 21 sec)
Heartbeat CPU 1 instructions: 350000052 cycles: 156548929 heartbeat IPC: 2.249 cumulative IPC: 1.957 (Simulation time: 09 hr 48 min 25 sec)
Heartbeat CPU 5 instructions: 350000053 cycles: 156548938 heartbeat IPC: 2.249 cumulative IPC: 1.963 (Simulation time: 09 hr 48 min 26 sec)
Heartbeat CPU 6 instructions: 630000007 cycles: 157515520 heartbeat IPC: 4 cumulative IPC: 4 (Simulation time: 09 hr 52 min 11 sec)
Heartbeat CPU 2 instructions: 630000005 cycles: 157515534 heartbeat IPC: 4 cumulative IPC: 4 (Simulation time: 09 hr 52 min 11 sec)
Heartbeat CPU 3 instructions: 630000006 cycles: 157516275 heartbeat IPC: 4 cumulative IPC: 4 (Simulation time: 09 hr 52 min 11 sec)
Heartbeat CPU 7 instructions: 630000002 cycles: 157516284 heartbeat IPC: 4 cumulative IPC: 4 (Simulation time: 09 hr 52 min 11 sec)
Heartbeat CPU 6 instructions: 640000007 cycles: 160015520 heartbeat IPC: 4 cumulative IPC: 4 (Simulation time: 10 hr 02 min 14 sec)
Heartbeat CPU 2 instructions: 640000005 cycles: 160015534 heartbeat IPC: 4 cumulative IPC: 4 (Simulation time: 10 hr 02 min 14 sec)
Heartbeat CPU 3 instructions: 640000006 cycles: 160016275 heartbeat IPC: 4 cumulative IPC: 4 (Simulation time: 10 hr 02 min 14 sec)
Heartbeat CPU 7 instructions: 640000002 cycles: 160016284 heartbeat IPC: 4 cumulative IPC: 4 (Simulation time: 10 hr 02 min 14 sec)
Heartbeat CPU 1 instructions: 360000055 cycles: 161542732 heartbeat IPC: 2.002 cumulative IPC: 1.959 (Simulation time: 10 hr 07 min 56 sec)
Heartbeat CPU 5 instructions: 360000055 cycles: 161542760 heartbeat IPC: 2.002 cumulative IPC: 1.965 (Simulation time: 10 hr 07 min 56 sec)
Heartbeat CPU 6 instructions: 650000007 cycles: 162515520 heartbeat IPC: 4 cumulative IPC: 4 (Simulation time: 10 hr 11 min 37 sec)
Heartbeat CPU 2 instructions: 650000005 cycles: 162515534 heartbeat IPC: 4 cumulative IPC: 4 (Simulation time: 10 hr 11 min 37 sec)
Heartbeat CPU 3 instructions: 650000006 cycles: 162516275 heartbeat IPC: 4 cumulative IPC: 4 (Simulation time: 10 hr 11 min 38 sec)
Heartbeat CPU 7 instructions: 650000002 cycles: 162516284 heartbeat IPC: 4 cumulative IPC: 4 (Simulation time: 10 hr 11 min 38 sec)
Heartbeat CPU 6 instructions: 660000007 cycles: 165015520 heartbeat IPC: 4 cumulative IPC: 4 (Simulation time: 10 hr 20 min 55 sec)
Heartbeat CPU 2 instructions: 660000005 cycles: 165015534 heartbeat IPC: 4 cumulative IPC: 4 (Simulation time: 10 hr 20 min 55 sec)
Heartbeat CPU 3 instructions: 660000006 cycles: 165016275 heartbeat IPC: 4 cumulative IPC: 4 (Simulation time: 10 hr 20 min 55 sec)
Heartbeat CPU 7 instructions: 660000002 cycles: 165016284 heartbeat IPC: 4 cumulative IPC: 4 (Simulation time: 10 hr 20 min 55 sec)
Heartbeat CPU 1 instructions: 370000056 cycles: 166256551 heartbeat IPC: 2.121 cumulative IPC: 1.966 (Simulation time: 10 hr 25 min 34 sec)
Heartbeat CPU 5 instructions: 370000056 cycles: 166256568 heartbeat IPC: 2.121 cumulative IPC: 1.972 (Simulation time: 10 hr 25 min 34 sec)
Heartbeat CPU 6 instructions: 670000007 cycles: 167515520 heartbeat IPC: 4 cumulative IPC: 4 (Simulation time: 10 hr 30 min 17 sec)
Heartbeat CPU 2 instructions: 670000005 cycles: 167515534 heartbeat IPC: 4 cumulative IPC: 4 (Simulation time: 10 hr 30 min 17 sec)
Heartbeat CPU 3 instructions: 670000006 cycles: 167516275 heartbeat IPC: 4 cumulative IPC: 4 (Simulation time: 10 hr 30 min 17 sec)
Heartbeat CPU 7 instructions: 670000002 cycles: 167516284 heartbeat IPC: 4 cumulative IPC: 4 (Simulation time: 10 hr 30 min 17 sec)
Heartbeat CPU 6 instructions: 680000007 cycles: 170015520 heartbeat IPC: 4 cumulative IPC: 4 (Simulation time: 10 hr 39 min 12 sec)
Heartbeat CPU 2 instructions: 680000005 cycles: 170015534 heartbeat IPC: 4 cumulative IPC: 4 (Simulation time: 10 hr 39 min 12 sec)
Heartbeat CPU 3 instructions: 680000006 cycles: 170016275 heartbeat IPC: 4 cumulative IPC: 4 (Simulation time: 10 hr 39 min 12 sec)
Heartbeat CPU 7 instructions: 680000002 cycles: 170016284 heartbeat IPC: 4 cumulative IPC: 4 (Simulation time: 10 hr 39 min 12 sec)
Heartbeat CPU 1 instructions: 380000058 cycles: 171260135 heartbeat IPC: 1.999 cumulative IPC: 1.968 (Simulation time: 10 hr 43 min 46 sec)
Heartbeat CPU 5 instructions: 380000058 cycles: 171260636 heartbeat IPC: 1.998 cumulative IPC: 1.973 (Simulation time: 10 hr 43 min 46 sec)
Heartbeat CPU 0 instructions: 110000007 cycles: 171808912 heartbeat IPC: 0.5916 cumulative IPC: 0.5372 (Simulation time: 10 hr 45 min 46 sec)
Heartbeat CPU 4 instructions: 110000010 cycles: 171808919 heartbeat IPC: 0.5916 cumulative IPC: 0.5372 (Simulation time: 10 hr 45 min 46 sec)
Heartbeat CPU 6 instructions: 690000007 cycles: 172515520 heartbeat IPC: 4 cumulative IPC: 4 (Simulation time: 10 hr 48 min 25 sec)
Heartbeat CPU 2 instructions: 690000005 cycles: 172515534 heartbeat IPC: 4 cumulative IPC: 4 (Simulation time: 10 hr 48 min 25 sec)
Heartbeat CPU 3 instructions: 690000006 cycles: 172516275 heartbeat IPC: 4 cumulative IPC: 4 (Simulation time: 10 hr 48 min 25 sec)
Heartbeat CPU 7 instructions: 690000002 cycles: 172516284 heartbeat IPC: 4 cumulative IPC: 4 (Simulation time: 10 hr 48 min 25 sec)
Heartbeat CPU 6 instructions: 700000007 cycles: 175015520 heartbeat IPC: 4 cumulative IPC: 4 (Simulation time: 10 hr 57 min 37 sec)
Heartbeat CPU 2 instructions: 700000005 cycles: 175015534 heartbeat IPC: 4 cumulative IPC: 4 (Simulation time: 10 hr 57 min 37 sec)
Heartbeat CPU 3 instructions: 700000006 cycles: 175016275 heartbeat IPC: 4 cumulative IPC: 4 (Simulation time: 10 hr 57 min 37 sec)
Heartbeat CPU 7 instructions: 700000002 cycles: 175016284 heartbeat IPC: 4 cumulative IPC: 4 (Simulation time: 10 hr 57 min 37 sec)
Heartbeat CPU 1 instructions: 390000061 cycles: 176961762 heartbeat IPC: 1.754 cumulative IPC: 1.957 (Simulation time: 11 hr 04 min 54 sec)
Heartbeat CPU 5 instructions: 390000061 cycles: 176961819 heartbeat IPC: 1.754 cumulative IPC: 1.962 (Simulation time: 11 hr 04 min 54 sec)
Heartbeat CPU 6 instructions: 710000007 cycles: 177515520 heartbeat IPC: 4 cumulative IPC: 4 (Simulation time: 11 hr 06 min 55 sec)
Heartbeat CPU 2 instructions: 710000005 cycles: 177515534 heartbeat IPC: 4 cumulative IPC: 4 (Simulation time: 11 hr 06 min 55 sec)
Heartbeat CPU 3 instructions: 710000006 cycles: 177516275 heartbeat IPC: 4 cumulative IPC: 4 (Simulation time: 11 hr 06 min 55 sec)
Heartbeat CPU 7 instructions: 710000002 cycles: 177516284 heartbeat IPC: 4 cumulative IPC: 4 (Simulation time: 11 hr 06 min 55 sec)
Heartbeat CPU 6 instructions: 720000007 cycles: 180015520 heartbeat IPC: 4 cumulative IPC: 4 (Simulation time: 11 hr 16 min 13 sec)
Heartbeat CPU 2 instructions: 720000005 cycles: 180015534 heartbeat IPC: 4 cumulative IPC: 4 (Simulation time: 11 hr 16 min 13 sec)
Heartbeat CPU 3 instructions: 720000006 cycles: 180016275 heartbeat IPC: 4 cumulative IPC: 4 (Simulation time: 11 hr 16 min 14 sec)
Heartbeat CPU 7 instructions: 720000002 cycles: 180016284 heartbeat IPC: 4 cumulative IPC: 4 (Simulation time: 11 hr 16 min 14 sec)
Heartbeat CPU 6 instructions: 730000007 cycles: 182515520 heartbeat IPC: 4 cumulative IPC: 4 (Simulation time: 11 hr 26 min 22 sec)
Heartbeat CPU 2 instructions: 730000005 cycles: 182515534 heartbeat IPC: 4 cumulative IPC: 4 (Simulation time: 11 hr 26 min 22 sec)
Heartbeat CPU 3 instructions: 730000006 cycles: 182516275 heartbeat IPC: 4 cumulative IPC: 4 (Simulation time: 11 hr 26 min 22 sec)
Heartbeat CPU 7 instructions: 730000002 cycles: 182516284 heartbeat IPC: 4 cumulative IPC: 4 (Simulation time: 11 hr 26 min 22 sec)
Heartbeat CPU 1 instructions: 400000063 cycles: 182992399 heartbeat IPC: 1.658 cumulative IPC: 1.943 (Simulation time: 11 hr 28 min 15 sec)
Heartbeat CPU 5 instructions: 400000063 cycles: 182992408 heartbeat IPC: 1.658 cumulative IPC: 1.947 (Simulation time: 11 hr 28 min 15 sec)
Heartbeat CPU 6 instructions: 740000007 cycles: 185015520 heartbeat IPC: 4 cumulative IPC: 4 (Simulation time: 11 hr 36 min 14 sec)
Heartbeat CPU 2 instructions: 740000005 cycles: 185015534 heartbeat IPC: 4 cumulative IPC: 4 (Simulation time: 11 hr 36 min 14 sec)
Heartbeat CPU 3 instructions: 740000006 cycles: 185016275 heartbeat IPC: 4 cumulative IPC: 4 (Simulation time: 11 hr 36 min 14 sec)
Heartbeat CPU 7 instructions: 740000002 cycles: 185016284 heartbeat IPC: 4 cumulative IPC: 4 (Simulation time: 11 hr 36 min 14 sec)
Heartbeat CPU 6 instructions: 750000007 cycles: 187515520 heartbeat IPC: 4 cumulative IPC: 4 (Simulation time: 11 hr 46 min 22 sec)
Heartbeat CPU 2 instructions: 750000005 cycles: 187515534 heartbeat IPC: 4 cumulative IPC: 4 (Simulation time: 11 hr 46 min 22 sec)
Heartbeat CPU 3 instructions: 750000006 cycles: 187516275 heartbeat IPC: 4 cumulative IPC: 4 (Simulation time: 11 hr 46 min 22 sec)
Heartbeat CPU 7 instructions: 750000002 cycles: 187516284 heartbeat IPC: 4 cumulative IPC: 4 (Simulation time: 11 hr 46 min 22 sec)
Heartbeat CPU 4 instructions: 120000010 cycles: 188178881 heartbeat IPC: 0.6109 cumulative IPC: 0.5466 (Simulation time: 11 hr 49 min 12 sec)
Heartbeat CPU 0 instructions: 120000010 cycles: 188178884 heartbeat IPC: 0.6109 cumulative IPC: 0.5466 (Simulation time: 11 hr 49 min 12 sec)
Heartbeat CPU 1 instructions: 410000064 cycles: 188497231 heartbeat IPC: 1.817 cumulative IPC: 1.937 (Simulation time: 11 hr 50 min 29 sec)
Heartbeat CPU 5 instructions: 410000064 cycles: 188497284 heartbeat IPC: 1.817 cumulative IPC: 1.942 (Simulation time: 11 hr 50 min 29 sec)
Heartbeat CPU 6 instructions: 760000007 cycles: 190015520 heartbeat IPC: 4 cumulative IPC: 4 (Simulation time: 11 hr 56 min 43 sec)
Heartbeat CPU 2 instructions: 760000005 cycles: 190015534 heartbeat IPC: 4 cumulative IPC: 4 (Simulation time: 11 hr 56 min 43 sec)
Heartbeat CPU 3 instructions: 760000006 cycles: 190016275 heartbeat IPC: 4 cumulative IPC: 4 (Simulation time: 11 hr 56 min 43 sec)
Heartbeat CPU 7 instructions: 760000002 cycles: 190016284 heartbeat IPC: 4 cumulative IPC: 4 (Simulation time: 11 hr 56 min 43 sec)
Heartbeat CPU 6 instructions: 770000007 cycles: 192515520 heartbeat IPC: 4 cumulative IPC: 4 (Simulation time: 12 hr 06 min 57 sec)
Heartbeat CPU 2 instructions: 770000005 cycles: 192515534 heartbeat IPC: 4 cumulative IPC: 4 (Simulation time: 12 hr 06 min 57 sec)
Heartbeat CPU 3 instructions: 770000006 cycles: 192516275 heartbeat IPC: 4 cumulative IPC: 4 (Simulation time: 12 hr 06 min 57 sec)
Heartbeat CPU 7 instructions: 770000002 cycles: 192516284 heartbeat IPC: 4 cumulative IPC: 4 (Simulation time: 12 hr 06 min 57 sec)
Heartbeat CPU 6 instructions: 780000007 cycles: 195015520 heartbeat IPC: 4 cumulative IPC: 4 (Simulation time: 12 hr 16 min 33 sec)
Heartbeat CPU 2 instructions: 780000005 cycles: 195015534 heartbeat IPC: 4 cumulative IPC: 4 (Simulation time: 12 hr 16 min 33 sec)
Heartbeat CPU 3 instructions: 780000006 cycles: 195016275 heartbeat IPC: 4 cumulative IPC: 4 (Simulation time: 12 hr 16 min 33 sec)
Heartbeat CPU 7 instructions: 780000002 cycles: 195016284 heartbeat IPC: 4 cumulative IPC: 4 (Simulation time: 12 hr 16 min 33 sec)
Heartbeat CPU 5 instructions: 420000066 cycles: 196696177 heartbeat IPC: 1.22 cumulative IPC: 1.898 (Simulation time: 12 hr 22 min 19 sec)
Heartbeat CPU 1 instructions: 420000066 cycles: 196696177 heartbeat IPC: 1.22 cumulative IPC: 1.894 (Simulation time: 12 hr 22 min 19 sec)
Heartbeat CPU 6 instructions: 790000007 cycles: 197515520 heartbeat IPC: 4 cumulative IPC: 4 (Simulation time: 12 hr 25 min 13 sec)
Heartbeat CPU 2 instructions: 790000005 cycles: 197515534 heartbeat IPC: 4 cumulative IPC: 4 (Simulation time: 12 hr 25 min 13 sec)
Heartbeat CPU 3 instructions: 790000006 cycles: 197516275 heartbeat IPC: 4 cumulative IPC: 4 (Simulation time: 12 hr 25 min 13 sec)
Heartbeat CPU 7 instructions: 790000002 cycles: 197516284 heartbeat IPC: 4 cumulative IPC: 4 (Simulation time: 12 hr 25 min 13 sec)
Heartbeat CPU 6 instructions: 800000007 cycles: 200015520 heartbeat IPC: 4 cumulative IPC: 4 (Simulation time: 12 hr 34 min 24 sec)
Heartbeat CPU 2 instructions: 800000005 cycles: 200015534 heartbeat IPC: 4 cumulative IPC: 4 (Simulation time: 12 hr 34 min 24 sec)
Heartbeat CPU 3 instructions: 800000006 cycles: 200016275 heartbeat IPC: 4 cumulative IPC: 4 (Simulation time: 12 hr 34 min 24 sec)
Heartbeat CPU 7 instructions: 800000002 cycles: 200016284 heartbeat IPC: 4 cumulative IPC: 4 (Simulation time: 12 hr 34 min 24 sec)
Heartbeat CPU 0 instructions: 130000012 cycles: 200361733 heartbeat IPC: 0.8208 cumulative IPC: 0.5704 (Simulation time: 12 hr 35 min 48 sec)
Heartbeat CPU 4 instructions: 130000012 cycles: 200361778 heartbeat IPC: 0.8208 cumulative IPC: 0.5704 (Simulation time: 12 hr 35 min 48 sec)
Heartbeat CPU 6 instructions: 810000007 cycles: 202515520 heartbeat IPC: 4 cumulative IPC: 4 (Simulation time: 12 hr 44 min 24 sec)
Heartbeat CPU 2 instructions: 810000005 cycles: 202515534 heartbeat IPC: 4 cumulative IPC: 4 (Simulation time: 12 hr 44 min 24 sec)
Heartbeat CPU 3 instructions: 810000006 cycles: 202516275 heartbeat IPC: 4 cumulative IPC: 4 (Simulation time: 12 hr 44 min 24 sec)
Heartbeat CPU 7 instructions: 810000002 cycles: 202516284 heartbeat IPC: 4 cumulative IPC: 4 (Simulation time: 12 hr 44 min 24 sec)
Heartbeat CPU 1 instructions: 430000066 cycles: 202520972 heartbeat IPC: 1.717 cumulative IPC: 1.887 (Simulation time: 12 hr 44 min 25 sec)
Heartbeat CPU 5 instructions: 430000066 cycles: 202521039 heartbeat IPC: 1.717 cumulative IPC: 1.891 (Simulation time: 12 hr 44 min 25 sec)
Heartbeat CPU 6 instructions: 820000007 cycles: 205015520 heartbeat IPC: 4 cumulative IPC: 4 (Simulation time: 12 hr 54 min 57 sec)
Heartbeat CPU 2 instructions: 820000005 cycles: 205015534 heartbeat IPC: 4 cumulative IPC: 4 (Simulation time: 12 hr 54 min 57 sec)
Heartbeat CPU 3 instructions: 820000006 cycles: 205016275 heartbeat IPC: 4 cumulative IPC: 4 (Simulation time: 12 hr 54 min 57 sec)
Heartbeat CPU 7 instructions: 820000002 cycles: 205016284 heartbeat IPC: 4 cumulative IPC: 4 (Simulation time: 12 hr 54 min 57 sec)
Heartbeat CPU 0 instructions: 140000015 cycles: 207065318 heartbeat IPC: 1.492 cumulative IPC: 0.6125 (Simulation time: 13 hr 04 min 32 sec)
Heartbeat CPU 4 instructions: 140000015 cycles: 207076793 heartbeat IPC: 1.489 cumulative IPC: 0.6124 (Simulation time: 13 hr 04 min 35 sec)
Heartbeat CPU 6 instructions: 830000007 cycles: 207515520 heartbeat IPC: 4 cumulative IPC: 4 (Simulation time: 13 hr 06 min 37 sec)
Heartbeat CPU 2 instructions: 830000005 cycles: 207515534 heartbeat IPC: 4 cumulative IPC: 4 (Simulation time: 13 hr 06 min 37 sec)
Heartbeat CPU 3 instructions: 830000006 cycles: 207516275 heartbeat IPC: 4 cumulative IPC: 4 (Simulation time: 13 hr 06 min 37 sec)
Heartbeat CPU 7 instructions: 830000002 cycles: 207516284 heartbeat IPC: 4 cumulative IPC: 4 (Simulation time: 13 hr 06 min 37 sec)
Heartbeat CPU 1 instructions: 440000069 cycles: 207553745 heartbeat IPC: 1.987 cumulative IPC: 1.89 (Simulation time: 13 hr 06 min 48 sec)
Heartbeat CPU 5 instructions: 440000069 cycles: 207553810 heartbeat IPC: 1.987 cumulative IPC: 1.894 (Simulation time: 13 hr 06 min 48 sec)
Heartbeat CPU 6 instructions: 840000007 cycles: 210015520 heartbeat IPC: 4 cumulative IPC: 4 (Simulation time: 13 hr 17 min 17 sec)
Heartbeat CPU 2 instructions: 840000005 cycles: 210015534 heartbeat IPC: 4 cumulative IPC: 4 (Simulation time: 13 hr 17 min 17 sec)
Heartbeat CPU 3 instructions: 840000006 cycles: 210016275 heartbeat IPC: 4 cumulative IPC: 4 (Simulation time: 13 hr 17 min 17 sec)
Heartbeat CPU 7 instructions: 840000002 cycles: 210016284 heartbeat IPC: 4 cumulative IPC: 4 (Simulation time: 13 hr 17 min 17 sec)
Heartbeat CPU 6 instructions: 850000007 cycles: 212515520 heartbeat IPC: 4 cumulative IPC: 4 (Simulation time: 13 hr 27 min 28 sec)
Heartbeat CPU 2 instructions: 850000005 cycles: 212515534 heartbeat IPC: 4 cumulative IPC: 4 (Simulation time: 13 hr 27 min 28 sec)
Heartbeat CPU 3 instructions: 850000006 cycles: 212516275 heartbeat IPC: 4 cumulative IPC: 4 (Simulation time: 13 hr 27 min 28 sec)
Heartbeat CPU 7 instructions: 850000002 cycles: 212516284 heartbeat IPC: 4 cumulative IPC: 4 (Simulation time: 13 hr 27 min 28 sec)
Heartbeat CPU 1 instructions: 450000070 cycles: 212783789 heartbeat IPC: 1.912 cumulative IPC: 1.891 (Simulation time: 13 hr 28 min 30 sec)
Heartbeat CPU 5 instructions: 450000070 cycles: 212783880 heartbeat IPC: 1.912 cumulative IPC: 1.895 (Simulation time: 13 hr 28 min 30 sec)
Heartbeat CPU 6 instructions: 860000007 cycles: 215015520 heartbeat IPC: 4 cumulative IPC: 4 (Simulation time: 13 hr 37 min 16 sec)
Heartbeat CPU 2 instructions: 860000005 cycles: 215015534 heartbeat IPC: 4 cumulative IPC: 4 (Simulation time: 13 hr 37 min 16 sec)
Heartbeat CPU 3 instructions: 860000006 cycles: 215016275 heartbeat IPC: 4 cumulative IPC: 4 (Simulation time: 13 hr 37 min 16 sec)
Heartbeat CPU 7 instructions: 860000002 cycles: 215016284 heartbeat IPC: 4 cumulative IPC: 4 (Simulation time: 13 hr 37 min 16 sec)
Heartbeat CPU 6 instructions: 870000007 cycles: 217515520 heartbeat IPC: 4 cumulative IPC: 4 (Simulation time: 13 hr 46 min 38 sec)
Heartbeat CPU 2 instructions: 870000005 cycles: 217515534 heartbeat IPC: 4 cumulative IPC: 4 (Simulation time: 13 hr 46 min 38 sec)
Heartbeat CPU 3 instructions: 870000006 cycles: 217516275 heartbeat IPC: 4 cumulative IPC: 4 (Simulation time: 13 hr 46 min 38 sec)
Heartbeat CPU 7 instructions: 870000002 cycles: 217516284 heartbeat IPC: 4 cumulative IPC: 4 (Simulation time: 13 hr 46 min 38 sec)
Heartbeat CPU 1 instructions: 460000072 cycles: 217959931 heartbeat IPC: 1.932 cumulative IPC: 1.892 (Simulation time: 13 hr 48 min 11 sec)
Heartbeat CPU 5 instructions: 460000071 cycles: 217959970 heartbeat IPC: 1.932 cumulative IPC: 1.896 (Simulation time: 13 hr 48 min 11 sec)
Simulation finished CPU 0 instructions: 100000004 cycles: 159122058 cumulative IPC: 0.6284 (Simulation time: 13 hr 52 min 29 sec)
Heartbeat CPU 0 instructions: 150000016 cycles: 219238323 heartbeat IPC: 0.8215 cumulative IPC: 0.6284 (Simulation time: 13 hr 52 min 29 sec)
Heartbeat CPU 4 instructions: 150000019 cycles: 219238494 heartbeat IPC: 0.8223 cumulative IPC: 0.6284 (Simulation time: 13 hr 52 min 29 sec)
Simulation finished CPU 4 instructions: 100000002 cycles: 159122676 cumulative IPC: 0.6284 (Simulation time: 13 hr 52 min 29 sec)
Simulation complete CPU 7 instructions: 636458776 cycles: 159122676 cumulative IPC: 4 (Simulation time: 13 hr 52 min 29 sec)
Simulation complete CPU 6 instructions: 636461354 cycles: 159122676 cumulative IPC: 4 (Simulation time: 13 hr 52 min 29 sec)
Simulation complete CPU 5 instructions: 301930175 cycles: 159122676 cumulative IPC: 1.897 (Simulation time: 13 hr 52 min 29 sec)
Simulation complete CPU 4 instructions: 100000002 cycles: 159122676 cumulative IPC: 0.6284 (Simulation time: 13 hr 52 min 29 sec)
Simulation complete CPU 3 instructions: 636458028 cycles: 159122676 cumulative IPC: 4 (Simulation time: 13 hr 52 min 29 sec)
Simulation complete CPU 2 instructions: 636461294 cycles: 159122676 cumulative IPC: 4 (Simulation time: 13 hr 52 min 29 sec)
Simulation complete CPU 1 instructions: 301339942 cycles: 159122676 cumulative IPC: 1.894 (Simulation time: 13 hr 52 min 29 sec)
Simulation complete CPU 0 instructions: 100000318 cycles: 159122676 cumulative IPC: 0.6284 (Simulation time: 13 hr 52 min 29 sec)

ChampSim completed all CPUs

=== Simulation ===
CPU 0 runs /home/harshraj/COALESCE-Hashed-Perceptron-Cache-Replacement-Policy/simulator/traces/barnes_4t0.champsimtrace
CPU 1 runs /home/harshraj/COALESCE-Hashed-Perceptron-Cache-Replacement-Policy/simulator/traces/barnes_4t1.champsimtrace
CPU 2 runs /home/harshraj/COALESCE-Hashed-Perceptron-Cache-Replacement-Policy/simulator/traces/barnes_4t2.champsimtrace
CPU 3 runs /home/harshraj/COALESCE-Hashed-Perceptron-Cache-Replacement-Policy/simulator/traces/barnes_4t3.champsimtrace
CPU 4 runs /home/harshraj/COALESCE-Hashed-Perceptron-Cache-Replacement-Policy/simulator/traces/barnes_4t0.champsimtrace
CPU 5 runs /home/harshraj/COALESCE-Hashed-Perceptron-Cache-Replacement-Policy/simulator/traces/barnes_4t1.champsimtrace
CPU 6 runs /home/harshraj/COALESCE-Hashed-Perceptron-Cache-Replacement-Policy/simulator/traces/barnes_4t2.champsimtrace
CPU 7 runs /home/harshraj/COALESCE-Hashed-Perceptron-Cache-Replacement-Policy/simulator/traces/barnes_4t3.champsimtrace

Total Simulation Statistics (not including warmup)

CPU 7 cumulative IPC: 4 instructions: 636458776 cycles: 159122676
CPU 7 Branch Prediction Accuracy: -% MPKI: 0 Average ROB Occupancy at Mispredict: -
Branch type MPKI
BRANCH_DIRECT_JUMP: 0
BRANCH_INDIRECT: 0
BRANCH_CONDITIONAL: 0
BRANCH_DIRECT_CALL: 0
BRANCH_INDIRECT_CALL: 0
BRANCH_RETURN: 0


CPU 6 cumulative IPC: 4 instructions: 636461354 cycles: 159122676
CPU 6 Branch Prediction Accuracy: -% MPKI: 0 Average ROB Occupancy at Mispredict: -
Branch type MPKI
BRANCH_DIRECT_JUMP: 0
BRANCH_INDIRECT: 0
BRANCH_CONDITIONAL: 0
BRANCH_DIRECT_CALL: 0
BRANCH_INDIRECT_CALL: 0
BRANCH_RETURN: 0


CPU 5 cumulative IPC: 1.897 instructions: 301930175 cycles: 159122676
CPU 5 Branch Prediction Accuracy: -% MPKI: 0 Average ROB Occupancy at Mispredict: -
Branch type MPKI
BRANCH_DIRECT_JUMP: 0
BRANCH_INDIRECT: 0
BRANCH_CONDITIONAL: 0
BRANCH_DIRECT_CALL: 0
BRANCH_INDIRECT_CALL: 0
BRANCH_RETURN: 0


CPU 4 cumulative IPC: 0.6284 instructions: 100000002 cycles: 159122676
CPU 4 Branch Prediction Accuracy: -% MPKI: 0 Average ROB Occupancy at Mispredict: -
Branch type MPKI
BRANCH_DIRECT_JUMP: 0
BRANCH_INDIRECT: 0
BRANCH_CONDITIONAL: 0
BRANCH_DIRECT_CALL: 0
BRANCH_INDIRECT_CALL: 0
BRANCH_RETURN: 0


CPU 3 cumulative IPC: 4 instructions: 636458028 cycles: 159122676
CPU 3 Branch Prediction Accuracy: -% MPKI: 0 Average ROB Occupancy at Mispredict: -
Branch type MPKI
BRANCH_DIRECT_JUMP: 0
BRANCH_INDIRECT: 0
BRANCH_CONDITIONAL: 0
BRANCH_DIRECT_CALL: 0
BRANCH_INDIRECT_CALL: 0
BRANCH_RETURN: 0


CPU 2 cumulative IPC: 4 instructions: 636461294 cycles: 159122676
CPU 2 Branch Prediction Accuracy: -% MPKI: 0 Average ROB Occupancy at Mispredict: -
Branch type MPKI
BRANCH_DIRECT_JUMP: 0
BRANCH_INDIRECT: 0
BRANCH_CONDITIONAL: 0
BRANCH_DIRECT_CALL: 0
BRANCH_INDIRECT_CALL: 0
BRANCH_RETURN: 0


CPU 1 cumulative IPC: 1.894 instructions: 301339942 cycles: 159122676
CPU 1 Branch Prediction Accuracy: -% MPKI: 0 Average ROB Occupancy at Mispredict: -
Branch type MPKI
BRANCH_DIRECT_JUMP: 0
BRANCH_INDIRECT: 0
BRANCH_CONDITIONAL: 0
BRANCH_DIRECT_CALL: 0
BRANCH_INDIRECT_CALL: 0
BRANCH_RETURN: 0


CPU 0 cumulative IPC: 0.6284 instructions: 100000318 cycles: 159122676
CPU 0 Branch Prediction Accuracy: -% MPKI: 0 Average ROB Occupancy at Mispredict: -
Branch type MPKI
BRANCH_DIRECT_JUMP: 0
BRANCH_INDIRECT: 0
BRANCH_CONDITIONAL: 0
BRANCH_DIRECT_CALL: 0
BRANCH_INDIRECT_CALL: 0
BRANCH_RETURN: 0

cpu7->cpu7_STLB TOTAL        ACCESS:         18 HIT:          8 MISS:         10 MSHR_MERGE:          0
cpu7->cpu7_STLB LOAD         ACCESS:         18 HIT:          8 MISS:         10 MSHR_MERGE:          0
cpu7->cpu7_STLB RFO          ACCESS:          0 HIT:          0 MISS:          0 MSHR_MERGE:          0
cpu7->cpu7_STLB PREFETCH     ACCESS:          0 HIT:          0 MISS:          0 MSHR_MERGE:          0
cpu7->cpu7_STLB WRITE        ACCESS:          0 HIT:          0 MISS:          0 MSHR_MERGE:          0
cpu7->cpu7_STLB TRANSLATION  ACCESS:          0 HIT:          0 MISS:          0 MSHR_MERGE:          0
cpu7->cpu7_STLB PREFETCH REQUESTED:          0 ISSUED:          0 USEFUL:          0 USELESS:          0
cpu7->cpu7_STLB AVERAGE MISS LATENCY: 748.8 cycles
cpu7_STLB COHERENCE INVALIDATIONS:          0
cpu7_STLB COHERENCE WRITE-HIT OTHER-SHARER EVENTS:          0
cpu7->cpu7_L2C TOTAL        ACCESS:         58 HIT:          4 MISS:         54 MSHR_MERGE:          0
cpu7->cpu7_L2C LOAD         ACCESS:         38 HIT:          4 MISS:         34 MSHR_MERGE:          0
cpu7->cpu7_L2C RFO          ACCESS:          0 HIT:          0 MISS:          0 MSHR_MERGE:          0
cpu7->cpu7_L2C PREFETCH     ACCESS:          0 HIT:          0 MISS:          0 MSHR_MERGE:          0
cpu7->cpu7_L2C WRITE        ACCESS:          0 HIT:          0 MISS:          0 MSHR_MERGE:          0
cpu7->cpu7_L2C TRANSLATION  ACCESS:         20 HIT:          0 MISS:         20 MSHR_MERGE:          0
cpu7->cpu7_L2C PREFETCH REQUESTED:          0 ISSUED:          0 USEFUL:          0 USELESS:          0
cpu7->cpu7_L2C AVERAGE MISS LATENCY: 172 cycles
cpu7_L2C COHERENCE INVALIDATIONS:          0
cpu7_L2C COHERENCE WRITE-HIT OTHER-SHARER EVENTS:          0
cpu7->cpu7_L1I TOTAL        ACCESS:   91353932 HIT:   91353879 MISS:         53 MSHR_MERGE:         15
cpu7->cpu7_L1I LOAD         ACCESS:   91353932 HIT:   91353879 MISS:         53 MSHR_MERGE:         15
cpu7->cpu7_L1I RFO          ACCESS:          0 HIT:          0 MISS:          0 MSHR_MERGE:          0
cpu7->cpu7_L1I PREFETCH     ACCESS:          0 HIT:          0 MISS:          0 MSHR_MERGE:          0
cpu7->cpu7_L1I WRITE        ACCESS:          0 HIT:          0 MISS:          0 MSHR_MERGE:          0
cpu7->cpu7_L1I TRANSLATION  ACCESS:          0 HIT:          0 MISS:          0 MSHR_MERGE:          0
cpu7->cpu7_L1I PREFETCH REQUESTED:          0 ISSUED:          0 USEFUL:          0 USELESS:          0
cpu7->cpu7_L1I AVERAGE MISS LATENCY: 125.8 cycles
cpu7_L1I COHERENCE INVALIDATIONS:          0
cpu7_L1I COHERENCE WRITE-HIT OTHER-SHARER EVENTS:          0
cpu7->cpu7_L1D TOTAL        ACCESS:         20 HIT:          0 MISS:         20 MSHR_MERGE:          0
cpu7->cpu7_L1D LOAD         ACCESS:          0 HIT:          0 MISS:          0 MSHR_MERGE:          0
cpu7->cpu7_L1D RFO          ACCESS:          0 HIT:          0 MISS:          0 MSHR_MERGE:          0
cpu7->cpu7_L1D PREFETCH     ACCESS:          0 HIT:          0 MISS:          0 MSHR_MERGE:          0
cpu7->cpu7_L1D WRITE        ACCESS:          0 HIT:          0 MISS:          0 MSHR_MERGE:          0
cpu7->cpu7_L1D TRANSLATION  ACCESS:         20 HIT:          0 MISS:         20 MSHR_MERGE:          0
cpu7->cpu7_L1D PREFETCH REQUESTED:          0 ISSUED:          0 USEFUL:          0 USELESS:          0
cpu7->cpu7_L1D AVERAGE MISS LATENCY: 248.4 cycles
cpu7_L1D COHERENCE INVALIDATIONS:          0
cpu7_L1D COHERENCE WRITE-HIT OTHER-SHARER EVENTS:          0
cpu7->cpu7_ITLB TOTAL        ACCESS:   73644119 HIT:   73644087 MISS:         32 MSHR_MERGE:         14
cpu7->cpu7_ITLB LOAD         ACCESS:   73644119 HIT:   73644087 MISS:         32 MSHR_MERGE:         14
cpu7->cpu7_ITLB RFO          ACCESS:          0 HIT:          0 MISS:          0 MSHR_MERGE:          0
cpu7->cpu7_ITLB PREFETCH     ACCESS:          0 HIT:          0 MISS:          0 MSHR_MERGE:          0
cpu7->cpu7_ITLB WRITE        ACCESS:          0 HIT:          0 MISS:          0 MSHR_MERGE:          0
cpu7->cpu7_ITLB TRANSLATION  ACCESS:          0 HIT:          0 MISS:          0 MSHR_MERGE:          0
cpu7->cpu7_ITLB PREFETCH REQUESTED:          0 ISSUED:          0 USEFUL:          0 USELESS:          0
cpu7->cpu7_ITLB AVERAGE MISS LATENCY: 420.6 cycles
cpu7_ITLB COHERENCE INVALIDATIONS:          0
cpu7_ITLB COHERENCE WRITE-HIT OTHER-SHARER EVENTS:          0
cpu7_DTLB COHERENCE INVALIDATIONS:          0
cpu7_DTLB COHERENCE WRITE-HIT OTHER-SHARER EVENTS:          0
cpu6->cpu6_STLB TOTAL        ACCESS:         17 HIT:          7 MISS:         10 MSHR_MERGE:          0
cpu6->cpu6_STLB LOAD         ACCESS:         17 HIT:          7 MISS:         10 MSHR_MERGE:          0
cpu6->cpu6_STLB RFO          ACCESS:          0 HIT:          0 MISS:          0 MSHR_MERGE:          0
cpu6->cpu6_STLB PREFETCH     ACCESS:          0 HIT:          0 MISS:          0 MSHR_MERGE:          0
cpu6->cpu6_STLB WRITE        ACCESS:          0 HIT:          0 MISS:          0 MSHR_MERGE:          0
cpu6->cpu6_STLB TRANSLATION  ACCESS:          0 HIT:          0 MISS:          0 MSHR_MERGE:          0
cpu6->cpu6_STLB PREFETCH REQUESTED:          0 ISSUED:          0 USEFUL:          0 USELESS:          0
cpu6->cpu6_STLB AVERAGE MISS LATENCY: 667.2 cycles
cpu6_STLB COHERENCE INVALIDATIONS:          0
cpu6_STLB COHERENCE WRITE-HIT OTHER-SHARER EVENTS:          0
cpu6->cpu6_L2C TOTAL        ACCESS:         58 HIT:          4 MISS:         54 MSHR_MERGE:          0
cpu6->cpu6_L2C LOAD         ACCESS:         38 HIT:          4 MISS:         34 MSHR_MERGE:          0
cpu6->cpu6_L2C RFO          ACCESS:          0 HIT:          0 MISS:          0 MSHR_MERGE:          0
cpu6->cpu6_L2C PREFETCH     ACCESS:          0 HIT:          0 MISS:          0 MSHR_MERGE:          0
cpu6->cpu6_L2C WRITE        ACCESS:          0 HIT:          0 MISS:          0 MSHR_MERGE:          0
cpu6->cpu6_L2C TRANSLATION  ACCESS:         20 HIT:          0 MISS:         20 MSHR_MERGE:          0
cpu6->cpu6_L2C PREFETCH REQUESTED:          0 ISSUED:          0 USEFUL:          0 USELESS:          0
cpu6->cpu6_L2C AVERAGE MISS LATENCY: 195.2 cycles
cpu6_L2C COHERENCE INVALIDATIONS:          0
cpu6_L2C COHERENCE WRITE-HIT OTHER-SHARER EVENTS:          0
cpu6->cpu6_L1I TOTAL        ACCESS:   92773068 HIT:   92773012 MISS:         56 MSHR_MERGE:         18
cpu6->cpu6_L1I LOAD         ACCESS:   92773068 HIT:   92773012 MISS:         56 MSHR_MERGE:         18
cpu6->cpu6_L1I RFO          ACCESS:          0 HIT:          0 MISS:          0 MSHR_MERGE:          0
cpu6->cpu6_L1I PREFETCH     ACCESS:          0 HIT:          0 MISS:          0 MSHR_MERGE:          0
cpu6->cpu6_L1I WRITE        ACCESS:          0 HIT:          0 MISS:          0 MSHR_MERGE:          0
cpu6->cpu6_L1I TRANSLATION  ACCESS:          0 HIT:          0 MISS:          0 MSHR_MERGE:          0
cpu6->cpu6_L1I PREFETCH REQUESTED:          0 ISSUED:          0 USEFUL:          0 USELESS:          0
cpu6->cpu6_L1I AVERAGE MISS LATENCY: 169.7 cycles
cpu6_L1I COHERENCE INVALIDATIONS:          0
cpu6_L1I COHERENCE WRITE-HIT OTHER-SHARER EVENTS:          0
cpu6->cpu6_L1D TOTAL        ACCESS:         20 HIT:          0 MISS:         20 MSHR_MERGE:          0
cpu6->cpu6_L1D LOAD         ACCESS:          0 HIT:          0 MISS:          0 MSHR_MERGE:          0
cpu6->cpu6_L1D RFO          ACCESS:          0 HIT:          0 MISS:          0 MSHR_MERGE:          0
cpu6->cpu6_L1D PREFETCH     ACCESS:          0 HIT:          0 MISS:          0 MSHR_MERGE:          0
cpu6->cpu6_L1D WRITE        ACCESS:          0 HIT:          0 MISS:          0 MSHR_MERGE:          0
cpu6->cpu6_L1D TRANSLATION  ACCESS:         20 HIT:          0 MISS:         20 MSHR_MERGE:          0
cpu6->cpu6_L1D PREFETCH REQUESTED:          0 ISSUED:          0 USEFUL:          0 USELESS:          0
cpu6->cpu6_L1D AVERAGE MISS LATENCY: 227.6 cycles
cpu6_L1D COHERENCE INVALIDATIONS:          0
cpu6_L1D COHERENCE WRITE-HIT OTHER-SHARER EVENTS:          0
cpu6->cpu6_ITLB TOTAL        ACCESS:   74021434 HIT:   74021406 MISS:         28 MSHR_MERGE:         11
cpu6->cpu6_ITLB LOAD         ACCESS:   74021434 HIT:   74021406 MISS:         28 MSHR_MERGE:         11
cpu6->cpu6_ITLB RFO          ACCESS:          0 HIT:          0 MISS:          0 MSHR_MERGE:          0
cpu6->cpu6_ITLB PREFETCH     ACCESS:          0 HIT:          0 MISS:          0 MSHR_MERGE:          0
[...]
cpu2->cpu2_L2C RFO          ACCESS:          0 HIT:          0 MISS:          0 MSHR_MERGE:          0
cpu2->cpu2_L2C PREFETCH     ACCESS:          0 HIT:          0 MISS:          0 MSHR_MERGE:          0
cpu2->cpu2_L2C WRITE        ACCESS:          0 HIT:          0 MISS:          0 MSHR_MERGE:          0
cpu2->cpu2_L2C TRANSLATION  ACCESS:         20 HIT:          0 MISS:         20 MSHR_MERGE:          0
cpu2->cpu2_L2C PREFETCH REQUESTED:          0 ISSUED:          0 USEFUL:          0 USELESS:          0
cpu2->cpu2_L2C AVERAGE MISS LATENCY: 195.4 cycles
cpu2_L2C COHERENCE INVALIDATIONS:          0
cpu2_L2C COHERENCE WRITE-HIT OTHER-SHARER EVENTS:          0
cpu2->cpu2_L1I TOTAL        ACCESS:   91933279 HIT:   91933226 MISS:         53 MSHR_MERGE:         15
cpu2->cpu2_L1I LOAD         ACCESS:   91933279 HIT:   91933226 MISS:         53 MSHR_MERGE:         15
cpu2->cpu2_L1I RFO          ACCESS:          0 HIT:          0 MISS:          0 MSHR_MERGE:          0
cpu2->cpu2_L1I PREFETCH     ACCESS:          0 HIT:          0 MISS:          0 MSHR_MERGE:          0
cpu2->cpu2_L1I WRITE        ACCESS:          0 HIT:          0 MISS:          0 MSHR_MERGE:          0
cpu2->cpu2_L1I TRANSLATION  ACCESS:          0 HIT:          0 MISS:          0 MSHR_MERGE:          0
cpu2->cpu2_L1I PREFETCH REQUESTED:          0 ISSUED:          0 USEFUL:          0 USELESS:          0
cpu2->cpu2_L1I AVERAGE MISS LATENCY: 169.3 cycles
cpu2_L1I COHERENCE INVALIDATIONS:          0
cpu2_L1I COHERENCE WRITE-HIT OTHER-SHARER EVENTS:          0
cpu2->cpu2_L1D TOTAL        ACCESS:         20 HIT:          0 MISS:         20 MSHR_MERGE:          0
cpu2->cpu2_L1D LOAD         ACCESS:          0 HIT:          0 MISS:          0 MSHR_MERGE:          0
cpu2->cpu2_L1D RFO          ACCESS:          0 HIT:          0 MISS:          0 MSHR_MERGE:          0
cpu2->cpu2_L1D PREFETCH     ACCESS:          0 HIT:          0 MISS:          0 MSHR_MERGE:          0
cpu2->cpu2_L1D WRITE        ACCESS:          0 HIT:          0 MISS:          0 MSHR_MERGE:          0
cpu2->cpu2_L1D TRANSLATION  ACCESS:         20 HIT:          0 MISS:         20 MSHR_MERGE:          0
cpu2->cpu2_L1D PREFETCH REQUESTED:          0 ISSUED:          0 USEFUL:          0 USELESS:          0
cpu2->cpu2_L1D AVERAGE MISS LATENCY: 228.9 cycles
cpu2_L1D COHERENCE INVALIDATIONS:          0
cpu2_L1D COHERENCE WRITE-HIT OTHER-SHARER EVENTS:          0
cpu2->cpu2_ITLB TOTAL        ACCESS:   73445412 HIT:   73445384 MISS:         28 MSHR_MERGE:         11
cpu2->cpu2_ITLB LOAD         ACCESS:   73445412 HIT:   73445384 MISS:         28 MSHR_MERGE:         11
cpu2->cpu2_ITLB RFO          ACCESS:          0 HIT:          0 MISS:          0 MSHR_MERGE:          0
cpu2->cpu2_ITLB PREFETCH     ACCESS:          0 HIT:          0 MISS:          0 MSHR_MERGE:          0
cpu2->cpu2_ITLB WRITE        ACCESS:          0 HIT:          0 MISS:          0 MSHR_MERGE:          0
cpu2->cpu2_ITLB TRANSLATION  ACCESS:          0 HIT:          0 MISS:          0 MSHR_MERGE:          0
cpu2->cpu2_ITLB PREFETCH REQUESTED:          0 ISSUED:          0 USEFUL:          0 USELESS:          0
cpu2->cpu2_ITLB AVERAGE MISS LATENCY: 398.6 cycles
cpu2_ITLB COHERENCE INVALIDATIONS:          0
cpu2_ITLB COHERENCE WRITE-HIT OTHER-SHARER EVENTS:          0
cpu2_DTLB COHERENCE INVALIDATIONS:          0
cpu2_DTLB COHERENCE WRITE-HIT OTHER-SHARER EVENTS:          0
cpu1->cpu1_STLB TOTAL        ACCESS:    1126854 HIT:    1126686 MISS:        168 MSHR_MERGE:          0
cpu1->cpu1_STLB LOAD         ACCESS:    1126854 HIT:    1126686 MISS:        168 MSHR_MERGE:          0
cpu1->cpu1_STLB RFO          ACCESS:          0 HIT:          0 MISS:          0 MSHR_MERGE:          0
cpu1->cpu1_STLB PREFETCH     ACCESS:          0 HIT:          0 MISS:          0 MSHR_MERGE:          0
cpu1->cpu1_STLB WRITE        ACCESS:          0 HIT:          0 MISS:          0 MSHR_MERGE:          0
cpu1->cpu1_STLB TRANSLATION  ACCESS:          0 HIT:          0 MISS:          0 MSHR_MERGE:          0
cpu1->cpu1_STLB PREFETCH REQUESTED:          0 ISSUED:          0 USEFUL:          0 USELESS:          0
cpu1->cpu1_STLB AVERAGE MISS LATENCY: 584.6 cycles
cpu1_STLB COHERENCE INVALIDATIONS:          0
cpu1_STLB COHERENCE WRITE-HIT OTHER-SHARER EVENTS:          0
cpu1->cpu1_L2C TOTAL        ACCESS:    3356908 HIT:    3069596 MISS:     287312 MSHR_MERGE:          0
cpu1->cpu1_L2C LOAD         ACCESS:    3356711 HIT:    3069596 MISS:     287115 MSHR_MERGE:          0
cpu1->cpu1_L2C RFO          ACCESS:          0 HIT:          0 MISS:          0 MSHR_MERGE:          0
cpu1->cpu1_L2C PREFETCH     ACCESS:          0 HIT:          0 MISS:          0 MSHR_MERGE:          0
cpu1->cpu1_L2C WRITE        ACCESS:          0 HIT:          0 MISS:          0 MSHR_MERGE:          0
cpu1->cpu1_L2C TRANSLATION  ACCESS:        197 HIT:          0 MISS:        197 MSHR_MERGE:          0
cpu1->cpu1_L2C PREFETCH REQUESTED:          0 ISSUED:          0 USEFUL:          0 USELESS:          0
cpu1->cpu1_L2C AVERAGE MISS LATENCY: 120.2 cycles
cpu1_L2C COHERENCE INVALIDATIONS:          0
cpu1_L2C COHERENCE WRITE-HIT OTHER-SHARER EVENTS:          0
cpu1->cpu1_L1I TOTAL        ACCESS:   63314483 HIT:   59899839 MISS:    3414644 MSHR_MERGE:      57932
cpu1->cpu1_L1I LOAD         ACCESS:   63314483 HIT:   59899839 MISS:    3414644 MSHR_MERGE:      57932
cpu1->cpu1_L1I RFO          ACCESS:          0 HIT:          0 MISS:          0 MSHR_MERGE:          0
cpu1->cpu1_L1I PREFETCH     ACCESS:          0 HIT:          0 MISS:          0 MSHR_MERGE:          0
cpu1->cpu1_L1I WRITE        ACCESS:          0 HIT:          0 MISS:          0 MSHR_MERGE:          0
cpu1->cpu1_L1I TRANSLATION  ACCESS:          0 HIT:          0 MISS:          0 MSHR_MERGE:          0
cpu1->cpu1_L1I PREFETCH REQUESTED:          0 ISSUED:          0 USEFUL:          0 USELESS:          0
cpu1->cpu1_L1I AVERAGE MISS LATENCY: 17.36 cycles
cpu1_L1I COHERENCE INVALIDATIONS:          0
cpu1_L1I COHERENCE WRITE-HIT OTHER-SHARER EVENTS:          0
cpu1->cpu1_L1D TOTAL        ACCESS:        339 HIT:        142 MISS:        197 MSHR_MERGE:          0
cpu1->cpu1_L1D LOAD         ACCESS:          0 HIT:          0 MISS:          0 MSHR_MERGE:          0
cpu1->cpu1_L1D RFO          ACCESS:          0 HIT:          0 MISS:          0 MSHR_MERGE:          0
cpu1->cpu1_L1D PREFETCH     ACCESS:          0 HIT:          0 MISS:          0 MSHR_MERGE:          0
cpu1->cpu1_L1D WRITE        ACCESS:          0 HIT:          0 MISS:          0 MSHR_MERGE:          0
cpu1->cpu1_L1D TRANSLATION  ACCESS:        339 HIT:        142 MISS:        197 MSHR_MERGE:          0
cpu1->cpu1_L1D PREFETCH REQUESTED:          0 ISSUED:          0 USEFUL:          0 USELESS:          0
cpu1->cpu1_L1D AVERAGE MISS LATENCY: 206.7 cycles
cpu1_L1D COHERENCE INVALIDATIONS:          0
cpu1_L1D COHERENCE WRITE-HIT OTHER-SHARER EVENTS:          0
cpu1->cpu1_ITLB TOTAL        ACCESS:   60855774 HIT:   59668252 MISS:    1187522 MSHR_MERGE:      60668
cpu1->cpu1_ITLB LOAD         ACCESS:   60855774 HIT:   59668252 MISS:    1187522 MSHR_MERGE:      60668
cpu1->cpu1_ITLB RFO          ACCESS:          0 HIT:          0 MISS:          0 MSHR_MERGE:          0
cpu1->cpu1_ITLB PREFETCH     ACCESS:          0 HIT:          0 MISS:          0 MSHR_MERGE:          0
cpu1->cpu1_ITLB WRITE        ACCESS:          0 HIT:          0 MISS:          0 MSHR_MERGE:          0
cpu1->cpu1_ITLB TRANSLATION  ACCESS:          0 HIT:          0 MISS:          0 MSHR_MERGE:          0
cpu1->cpu1_ITLB PREFETCH REQUESTED:          0 ISSUED:          0 USEFUL:          0 USELESS:          0
cpu1->cpu1_ITLB AVERAGE MISS LATENCY: 4.087 cycles
cpu1_ITLB COHERENCE INVALIDATIONS:          0
cpu1_ITLB COHERENCE WRITE-HIT OTHER-SHARER EVENTS:          0
cpu1_DTLB COHERENCE INVALIDATIONS:          0
cpu1_DTLB COHERENCE WRITE-HIT OTHER-SHARER EVENTS:          0
cpu0->cpu0_STLB TOTAL        ACCESS:    3019623 HIT:    3006682 MISS:      12941 MSHR_MERGE:          0
cpu0->cpu0_STLB LOAD         ACCESS:    3019623 HIT:    3006682 MISS:      12941 MSHR_MERGE:          0
cpu0->cpu0_STLB RFO          ACCESS:          0 HIT:          0 MISS:          0 MSHR_MERGE:          0
cpu0->cpu0_STLB PREFETCH     ACCESS:          0 HIT:          0 MISS:          0 MSHR_MERGE:          0
cpu0->cpu0_STLB WRITE        ACCESS:          0 HIT:          0 MISS:          0 MSHR_MERGE:          0
cpu0->cpu0_STLB TRANSLATION  ACCESS:          0 HIT:          0 MISS:          0 MSHR_MERGE:          0
cpu0->cpu0_STLB PREFETCH REQUESTED:          0 ISSUED:          0 USEFUL:          0 USELESS:          0
cpu0->cpu0_STLB AVERAGE MISS LATENCY: 265 cycles
cpu0_STLB COHERENCE INVALIDATIONS:          0
cpu0_STLB COHERENCE WRITE-HIT OTHER-SHARER EVENTS:          0
cpu0->cpu0_L2C TOTAL        ACCESS:    4710064 HIT:    4303139 MISS:     406925 MSHR_MERGE:          0
cpu0->cpu0_L2C LOAD         ACCESS:    3759101 HIT:    3417580 MISS:     341521 MSHR_MERGE:          0
cpu0->cpu0_L2C RFO          ACCESS:     343602 HIT:     292329 MISS:      51273 MSHR_MERGE:          0
cpu0->cpu0_L2C PREFETCH     ACCESS:          0 HIT:          0 MISS:          0 MSHR_MERGE:          0
cpu0->cpu0_L2C WRITE        ACCESS:     579136 HIT:     578894 MISS:        242 MSHR_MERGE:          0
cpu0->cpu0_L2C TRANSLATION  ACCESS:      28225 HIT:      14336 MISS:      13889 MSHR_MERGE:          0
cpu0->cpu0_L2C PREFETCH REQUESTED:          0 ISSUED:          0 USEFUL:          0 USELESS:          0
cpu0->cpu0_L2C AVERAGE MISS LATENCY: 141.7 cycles
cpu0_L2C COHERENCE INVALIDATIONS:          0
cpu0_L2C COHERENCE WRITE-HIT OTHER-SHARER EVENTS:          0
cpu0->cpu0_L1I TOTAL        ACCESS:   25973483 HIT:   25973462 MISS:         21 MSHR_MERGE:          8
cpu0->cpu0_L1I LOAD         ACCESS:   25973483 HIT:   25973462 MISS:         21 MSHR_MERGE:          8
cpu0->cpu0_L1I RFO          ACCESS:          0 HIT:          0 MISS:          0 MSHR_MERGE:          0
cpu0->cpu0_L1I PREFETCH     ACCESS:          0 HIT:          0 MISS:          0 MSHR_MERGE:          0
cpu0->cpu0_L1I WRITE        ACCESS:          0 HIT:          0 MISS:          0 MSHR_MERGE:          0
cpu0->cpu0_L1I TRANSLATION  ACCESS:          0 HIT:          0 MISS:          0 MSHR_MERGE:          0
cpu0->cpu0_L1I PREFETCH REQUESTED:          0 ISSUED:          0 USEFUL:          0 USELESS:          0
cpu0->cpu0_L1I AVERAGE MISS LATENCY: 345.6 cycles
cpu0_L1I COHERENCE INVALIDATIONS:          0
cpu0_L1I COHERENCE WRITE-HIT OTHER-SHARER EVENTS:          0
cpu0->cpu0_L1D TOTAL        ACCESS:   63873291 HIT:   59663781 MISS:    4209510 MSHR_MERGE:      78310
cpu0->cpu0_L1D LOAD         ACCESS:   16873397 HIT:   13103834 MISS:    3769563 MSHR_MERGE:      10425
cpu0->cpu0_L1D RFO          ACCESS:          0 HIT:          0 MISS:          0 MSHR_MERGE:          0
cpu0->cpu0_L1D PREFETCH     ACCESS:          0 HIT:          0 MISS:          0 MSHR_MERGE:          0
cpu0->cpu0_L1D WRITE        ACCESS:   46968523 HIT:   46556810 MISS:     411713 MSHR_MERGE:      67876
cpu0->cpu0_L1D TRANSLATION  ACCESS:      31371 HIT:       3137 MISS:      28234 MSHR_MERGE:          9
cpu0->cpu0_L1D PREFETCH REQUESTED:          0 ISSUED:          0 USEFUL:          0 USELESS:          0
cpu0->cpu0_L1D AVERAGE MISS LATENCY: 21.06 cycles
cpu0_L1D COHERENCE INVALIDATIONS:          0
cpu0_L1D COHERENCE WRITE-HIT OTHER-SHARER EVENTS:          0
cpu0->cpu0_ITLB TOTAL        ACCESS:   23736094 HIT:   23736094 MISS:          0 MSHR_MERGE:          0
cpu0->cpu0_ITLB LOAD         ACCESS:   23736094 HIT:   23736094 MISS:          0 MSHR_MERGE:          0
cpu0->cpu0_ITLB RFO          ACCESS:          0 HIT:          0 MISS:          0 MSHR_MERGE:          0
cpu0->cpu0_ITLB PREFETCH     ACCESS:          0 HIT:          0 MISS:          0 MSHR_MERGE:          0
cpu0->cpu0_ITLB WRITE        ACCESS:          0 HIT:          0 MISS:          0 MSHR_MERGE:          0
cpu0->cpu0_ITLB TRANSLATION  ACCESS:          0 HIT:          0 MISS:          0 MSHR_MERGE:          0
cpu0->cpu0_ITLB PREFETCH REQUESTED:          0 ISSUED:          0 USEFUL:          0 USELESS:          0
cpu0->cpu0_ITLB AVERAGE MISS LATENCY: - cycles
cpu0_ITLB COHERENCE INVALIDATIONS:          0
cpu0_ITLB COHERENCE WRITE-HIT OTHER-SHARER EVENTS:          0
cpu0->cpu0_DTLB TOTAL        ACCESS:   62035332 HIT:   58844876 MISS:    3190456 MSHR_MERGE:     170833
cpu0->cpu0_DTLB LOAD         ACCESS:   62035332 HIT:   58844876 MISS:    3190456 MSHR_MERGE:     170833
cpu0->cpu0_DTLB RFO          ACCESS:          0 HIT:          0 MISS:          0 MSHR_MERGE:          0
cpu0->cpu0_DTLB PREFETCH     ACCESS:          0 HIT:          0 MISS:          0 MSHR_MERGE:          0
cpu0->cpu0_DTLB WRITE        ACCESS:          0 HIT:          0 MISS:          0 MSHR_MERGE:          0
cpu0->cpu0_DTLB TRANSLATION  ACCESS:          0 HIT:          0 MISS:          0 MSHR_MERGE:          0
cpu0->cpu0_DTLB PREFETCH REQUESTED:          0 ISSUED:          0 USEFUL:          0 USELESS:          0
cpu0->cpu0_DTLB AVERAGE MISS LATENCY: 5.14 cycles
cpu0_DTLB COHERENCE INVALIDATIONS:          0
cpu0_DTLB COHERENCE WRITE-HIT OTHER-SHARER EVENTS:          0
cpu0->LLC TOTAL        ACCESS:     510213 HIT:     208945 MISS:     301268 MSHR_MERGE:      38332
cpu0->LLC LOAD         ACCESS:     341521 HIT:     141596 MISS:     199925 MSHR_MERGE:      31394
cpu0->LLC RFO          ACCESS:      51273 HIT:      19012 MISS:      32261 MSHR_MERGE:       6938
cpu0->LLC PREFETCH     ACCESS:          0 HIT:          0 MISS:          0 MSHR_MERGE:          0
cpu0->LLC WRITE        ACCESS:     103530 HIT:      47511 MISS:      56019 MSHR_MERGE:          0
cpu0->LLC TRANSLATION  ACCESS:      13889 HIT:        826 MISS:      13063 MSHR_MERGE:          0
cpu0->LLC PREFETCH REQUESTED:          0 ISSUED:          0 USEFUL:          0 USELESS:          0
cpu0->LLC AVERAGE MISS LATENCY: 667 cycles
cpu1->LLC TOTAL        ACCESS:     287312 HIT:     121904 MISS:     165408 MSHR_MERGE:      27762
cpu1->LLC LOAD         ACCESS:     287115 HIT:     121904 MISS:     165211 MSHR_MERGE:      27762
cpu1->LLC RFO          ACCESS:          0 HIT:          0 MISS:          0 MSHR_MERGE:          0
cpu1->LLC PREFETCH     ACCESS:          0 HIT:          0 MISS:          0 MSHR_MERGE:          0
cpu1->LLC WRITE        ACCESS:          0 HIT:          0 MISS:          0 MSHR_MERGE:          0
cpu1->LLC TRANSLATION  ACCESS:        197 HIT:          0 MISS:        197 MSHR_MERGE:          0
cpu1->LLC PREFETCH REQUESTED:          0 ISSUED:          0 USEFUL:          0 USELESS:          0
cpu1->LLC AVERAGE MISS LATENCY: 2119 cycles
cpu2->LLC TOTAL        ACCESS:         54 HIT:          2 MISS:         52 MSHR_MERGE:         13
cpu2->LLC LOAD         ACCESS:         34 HIT:          2 MISS:         32 MSHR_MERGE:         13
cpu2->LLC RFO          ACCESS:          0 HIT:          0 MISS:          0 MSHR_MERGE:          0
cpu2->LLC PREFETCH     ACCESS:          0 HIT:          0 MISS:          0 MSHR_MERGE:          0
cpu2->LLC WRITE        ACCESS:          0 HIT:          0 MISS:          0 MSHR_MERGE:          0
cpu2->LLC TRANSLATION  ACCESS:         20 HIT:          0 MISS:         20 MSHR_MERGE:          0
cpu2->LLC PREFETCH REQUESTED:          0 ISSUED:          0 USEFUL:          0 USELESS:          0
cpu2->LLC AVERAGE MISS LATENCY: 2.606e+06 cycles
cpu3->LLC TOTAL        ACCESS:         54 HIT:          1 MISS:         53 MSHR_MERGE:          5
cpu3->LLC LOAD         ACCESS:         34 HIT:          1 MISS:         33 MSHR_MERGE:          5
cpu3->LLC RFO          ACCESS:          0 HIT:          0 MISS:          0 MSHR_MERGE:          0
cpu3->LLC PREFETCH     ACCESS:          0 HIT:          0 MISS:          0 MSHR_MERGE:          0
cpu3->LLC WRITE        ACCESS:          0 HIT:          0 MISS:          0 MSHR_MERGE:          0
cpu3->LLC TRANSLATION  ACCESS:         20 HIT:          0 MISS:         20 MSHR_MERGE:          0
cpu3->LLC PREFETCH REQUESTED:          0 ISSUED:          0 USEFUL:          0 USELESS:          0
cpu3->LLC AVERAGE MISS LATENCY: 2.774e+06 cycles
cpu4->LLC TOTAL        ACCESS:     510227 HIT:     235192 MISS:     275035 MSHR_MERGE:     172329
cpu4->LLC LOAD         ACCESS:     341471 HIT:     159146 MISS:     182325 MSHR_MERGE:     147947
cpu4->LLC RFO          ACCESS:      51314 HIT:      19885 MISS:      31429 MSHR_MERGE:      24382
cpu4->LLC PREFETCH     ACCESS:          0 HIT:          0 MISS:          0 MSHR_MERGE:          0
cpu4->LLC WRITE        ACCESS:     103583 HIT:      55417 MISS:      48166 MSHR_MERGE:          0
cpu4->LLC TRANSLATION  ACCESS:      13859 HIT:        744 MISS:      13115 MSHR_MERGE:          0
cpu4->LLC PREFETCH REQUESTED:          0 ISSUED:          0 USEFUL:          0 USELESS:          0
cpu4->LLC AVERAGE MISS LATENCY: 363.3 cycles
cpu5->LLC TOTAL        ACCESS:     287717 HIT:     134139 MISS:     153578 MSHR_MERGE:     124825
cpu5->LLC LOAD         ACCESS:     287520 HIT:     134139 MISS:     153381 MSHR_MERGE:     124825
cpu5->LLC RFO          ACCESS:          0 HIT:          0 MISS:          0 MSHR_MERGE:          0
cpu5->LLC PREFETCH     ACCESS:          0 HIT:          0 MISS:          0 MSHR_MERGE:          0
cpu5->LLC WRITE        ACCESS:          0 HIT:          0 MISS:          0 MSHR_MERGE:          0
cpu5->LLC TRANSLATION  ACCESS:        197 HIT:          0 MISS:        197 MSHR_MERGE:          0
cpu5->LLC PREFETCH REQUESTED:          0 ISSUED:          0 USEFUL:          0 USELESS:          0
cpu5->LLC AVERAGE MISS LATENCY: 683.5 cycles
cpu6->LLC TOTAL        ACCESS:         54 HIT:          2 MISS:         52 MSHR_MERGE:         19
cpu6->LLC LOAD         ACCESS:         34 HIT:          2 MISS:         32 MSHR_MERGE:         19
cpu6->LLC RFO          ACCESS:          0 HIT:          0 MISS:          0 MSHR_MERGE:          0
cpu6->LLC PREFETCH     ACCESS:          0 HIT:          0 MISS:          0 MSHR_MERGE:          0
cpu6->LLC WRITE        ACCESS:          0 HIT:          0 MISS:          0 MSHR_MERGE:          0
cpu6->LLC TRANSLATION  ACCESS:         20 HIT:          0 MISS:         20 MSHR_MERGE:          0
cpu6->LLC PREFETCH REQUESTED:          0 ISSUED:          0 USEFUL:          0 USELESS:          0
cpu6->LLC AVERAGE MISS LATENCY: 2.205e+06 cycles
cpu7->LLC TOTAL        ACCESS:         54 HIT:          6 MISS:         48 MSHR_MERGE:         22
cpu7->LLC LOAD         ACCESS:         34 HIT:          6 MISS:         28 MSHR_MERGE:         22
cpu7->LLC RFO          ACCESS:          0 HIT:          0 MISS:          0 MSHR_MERGE:          0
cpu7->LLC PREFETCH     ACCESS:          0 HIT:          0 MISS:          0 MSHR_MERGE:          0
cpu7->LLC WRITE        ACCESS:          0 HIT:          0 MISS:          0 MSHR_MERGE:          0
cpu7->LLC TRANSLATION  ACCESS:         20 HIT:          0 MISS:         20 MSHR_MERGE:          0
cpu7->LLC PREFETCH REQUESTED:          0 ISSUED:          0 USEFUL:          0 USELESS:          0
cpu7->LLC AVERAGE MISS LATENCY: 2e+06 cycles
LLC COHERENCE INVALIDATIONS:     154553
LLC COHERENCE WRITE-HIT OTHER-SHARER EVENTS:     101510
LLC SHARER HIST TOTAL:        8514992
LLC SHARER HIST[ 1]:        1243932  (14.609%)
LLC SHARER HIST[ 2]:        2099646  (24.658%)
LLC SHARER HIST[ 3]:         253026  ( 2.972%)
LLC SHARER HIST[ 4]:        4897029  (57.511%)
LLC SHARER HIST[ 5]:            859  ( 0.010%)
LLC SHARER HIST[ 6]:           2170  ( 0.025%)
LLC SHARER HIST[ 7]:           1448  ( 0.017%)
LLC SHARER HIST[ 8]:          16882  ( 0.198%)

DRAM Statistics

Channel 0 RQ ROW_BUFFER_HIT:       3183
  ROW_BUFFER_MISS:     424716
  AVG DBUS CONGESTED CYCLE: 13.31
Channel 0 WQ ROW_BUFFER_HIT:      22827
  ROW_BUFFER_MISS:      96223
  FULL:         16
Channel 0 REFRESHES ISSUED:      13260

VMEM ALIASED FILLS (cross-CPU shared-page hits): 26710
