[VMEM] WARNING: physical memory size is smaller than virtual memory size.

*** ChampSim Multicore Out-of-Order Simulator ***
Warmup Instructions: 50000000
Simulation Instructions: 100000000
Number of CPUs: 8
Page size: 4096

Off-chip DRAM Size: 16 GiB Channels: 1 Width: 64-bit Data Rate: 3205 MT/s
Heartbeat CPU 3 instructions: 10000002 cycles: 2508105 heartbeat IPC: 3.987 cumulative IPC: 3.987 (Simulation time: 00 hr 10 min 45 sec)
Heartbeat CPU 2 instructions: 10000003 cycles: 2508181 heartbeat IPC: 3.987 cumulative IPC: 3.987 (Simulation time: 00 hr 10 min 45 sec)
Heartbeat CPU 6 instructions: 10000001 cycles: 2508181 heartbeat IPC: 3.987 cumulative IPC: 3.987 (Simulation time: 00 hr 10 min 45 sec)
Heartbeat CPU 7 instructions: 10000002 cycles: 2508302 heartbeat IPC: 3.987 cumulative IPC: 3.987 (Simulation time: 00 hr 10 min 45 sec)
Heartbeat CPU 4 instructions: 10000003 cycles: 2979890 heartbeat IPC: 3.356 cumulative IPC: 3.356 (Simulation time: 00 hr 12 min 39 sec)
Heartbeat CPU 0 instructions: 10000000 cycles: 2980267 heartbeat IPC: 3.355 cumulative IPC: 3.355 (Simulation time: 00 hr 12 min 39 sec)
Heartbeat CPU 1 instructions: 10000002 cycles: 4085692 heartbeat IPC: 2.448 cumulative IPC: 2.448 (Simulation time: 00 hr 16 min 53 sec)
Heartbeat CPU 5 instructions: 10000002 cycles: 4089393 heartbeat IPC: 2.445 cumulative IPC: 2.445 (Simulation time: 00 hr 16 min 54 sec)
Heartbeat CPU 3 instructions: 20000002 cycles: 5008105 heartbeat IPC: 4 cumulative IPC: 3.994 (Simulation time: 00 hr 20 min 35 sec)
Heartbeat CPU 2 instructions: 20000003 cycles: 5008181 heartbeat IPC: 4 cumulative IPC: 3.993 (Simulation time: 00 hr 20 min 35 sec)
Heartbeat CPU 6 instructions: 20000001 cycles: 5008181 heartbeat IPC: 4 cumulative IPC: 3.993 (Simulation time: 00 hr 20 min 35 sec)
Heartbeat CPU 7 instructions: 20000002 cycles: 5008302 heartbeat IPC: 4 cumulative IPC: 3.993 (Simulation time: 00 hr 20 min 35 sec)
Heartbeat CPU 3 instructions: 30000002 cycles: 7508105 heartbeat IPC: 4 cumulative IPC: 3.996 (Simulation time: 00 hr 30 min 34 sec)
Heartbeat CPU 2 instructions: 30000003 cycles: 7508181 heartbeat IPC: 4 cumulative IPC: 3.996 (Simulation time: 00 hr 30 min 34 sec)
Heartbeat CPU 6 instructions: 30000001 cycles: 7508181 heartbeat IPC: 4 cumulative IPC: 3.996 (Simulation time: 00 hr 30 min 34 sec)
Heartbeat CPU 7 instructions: 30000002 cycles: 7508302 heartbeat IPC: 4 cumulative IPC: 3.996 (Simulation time: 00 hr 30 min 34 sec)
Heartbeat CPU 1 instructions: 20000004 cycles: 7759772 heartbeat IPC: 2.722 cumulative IPC: 2.577 (Simulation time: 00 hr 31 min 34 sec)
Heartbeat CPU 5 instructions: 20000004 cycles: 7777916 heartbeat IPC: 2.711 cumulative IPC: 2.571 (Simulation time: 00 hr 31 min 38 sec)
Heartbeat CPU 3 instructions: 40000002 cycles: 10008105 heartbeat IPC: 4 cumulative IPC: 3.997 (Simulation time: 00 hr 40 min 25 sec)
Heartbeat CPU 2 instructions: 40000003 cycles: 10008181 heartbeat IPC: 4 cumulative IPC: 3.997 (Simulation time: 00 hr 40 min 25 sec)
Heartbeat CPU 6 instructions: 40000001 cycles: 10008181 heartbeat IPC: 4 cumulative IPC: 3.997 (Simulation time: 00 hr 40 min 25 sec)
Heartbeat CPU 7 instructions: 40000002 cycles: 10008302 heartbeat IPC: 4 cumulative IPC: 3.997 (Simulation time: 00 hr 40 min 25 sec)
Heartbeat CPU 1 instructions: 30000005 cycles: 11456226 heartbeat IPC: 2.705 cumulative IPC: 2.619 (Simulation time: 00 hr 45 min 47 sec)
Heartbeat CPU 5 instructions: 30000005 cycles: 11489085 heartbeat IPC: 2.695 cumulative IPC: 2.611 (Simulation time: 00 hr 45 min 54 sec)
Heartbeat CPU 3 instructions: 50000002 cycles: 12508105 heartbeat IPC: 4 cumulative IPC: 3.997 (Simulation time: 00 hr 49 min 45 sec)
Warmup finished CPU 3 instructions: 50000002 cycles: 12508105 cumulative IPC: 3.997 (Simulation time: 00 hr 49 min 45 sec)
Heartbeat CPU 2 instructions: 50000003 cycles: 12508181 heartbeat IPC: 4 cumulative IPC: 3.997 (Simulation time: 00 hr 49 min 45 sec)
Heartbeat CPU 6 instructions: 50000001 cycles: 12508181 heartbeat IPC: 4 cumulative IPC: 3.997 (Simulation time: 00 hr 49 min 45 sec)
Warmup finished CPU 6 instructions: 50000001 cycles: 12508181 cumulative IPC: 3.997 (Simulation time: 00 hr 49 min 45 sec)
Warmup finished CPU 2 instructions: 50000003 cycles: 12508181 cumulative IPC: 3.997 (Simulation time: 00 hr 49 min 45 sec)
Heartbeat CPU 7 instructions: 50000002 cycles: 12508302 heartbeat IPC: 4 cumulative IPC: 3.997 (Simulation time: 00 hr 49 min 45 sec)
Warmup finished CPU 7 instructions: 50000002 cycles: 12508302 cumulative IPC: 3.997 (Simulation time: 00 hr 49 min 45 sec)
Heartbeat CPU 4 instructions: 20000005 cycles: 13853658 heartbeat IPC: 0.9196 cumulative IPC: 1.444 (Simulation time: 00 hr 54 min 49 sec)
Heartbeat CPU 0 instructions: 20000000 cycles: 13853734 heartbeat IPC: 0.9197 cumulative IPC: 1.444 (Simulation time: 00 hr 54 min 49 sec)
Heartbeat CPU 3 instructions: 60000002 cycles: 15008105 heartbeat IPC: 4 cumulative IPC: 3.998 (Simulation time: 00 hr 59 min 12 sec)
Heartbeat CPU 2 instructions: 60000003 cycles: 15008181 heartbeat IPC: 4 cumulative IPC: 3.998 (Simulation time: 00 hr 59 min 12 sec)
Heartbeat CPU 6 instructions: 60000001 cycles: 15008181 heartbeat IPC: 4 cumulative IPC: 3.998 (Simulation time: 00 hr 59 min 12 sec)
Heartbeat CPU 7 instructions: 60000002 cycles: 15008302 heartbeat IPC: 4 cumulative IPC: 3.998 (Simulation time: 00 hr 59 min 13 sec)
Heartbeat CPU 1 instructions: 40000006 cycles: 15150458 heartbeat IPC: 2.707 cumulative IPC: 2.64 (Simulation time: 00 hr 59 min 45 sec)
Heartbeat CPU 5 instructions: 40000006 cycles: 15197726 heartbeat IPC: 2.696 cumulative IPC: 2.632 (Simulation time: 00 hr 59 min 55 sec)
Heartbeat CPU 3 instructions: 70000002 cycles: 17508105 heartbeat IPC: 4 cumulative IPC: 3.998 (Simulation time: 01 hr 08 min 56 sec)
Heartbeat CPU 2 instructions: 70000003 cycles: 17508181 heartbeat IPC: 4 cumulative IPC: 3.998 (Simulation time: 01 hr 08 min 56 sec)
Heartbeat CPU 6 instructions: 70000001 cycles: 17508181 heartbeat IPC: 4 cumulative IPC: 3.998 (Simulation time: 01 hr 08 min 56 sec)
Heartbeat CPU 7 instructions: 70000002 cycles: 17508302 heartbeat IPC: 4 cumulative IPC: 3.998 (Simulation time: 01 hr 08 min 56 sec)
Warmup finished CPU 1 instructions: 50000003 cycles: 18865960 cumulative IPC: 2.65 (Simulation time: 01 hr 14 min 14 sec)
Heartbeat CPU 1 instructions: 50000007 cycles: 18865961 heartbeat IPC: 2.691 cumulative IPC: 2.65 (Simulation time: 01 hr 14 min 14 sec)
Warmup finished CPU 5 instructions: 50000003 cycles: 18928125 cumulative IPC: 2.642 (Simulation time: 01 hr 14 min 29 sec)
Heartbeat CPU 5 instructions: 50000007 cycles: 18928126 heartbeat IPC: 2.681 cumulative IPC: 2.642 (Simulation time: 01 hr 14 min 29 sec)
Heartbeat CPU 3 instructions: 80000002 cycles: 20008105 heartbeat IPC: 4 cumulative IPC: 3.998 (Simulation time: 01 hr 18 min 43 sec)
Heartbeat CPU 2 instructions: 80000003 cycles: 20008181 heartbeat IPC: 4 cumulative IPC: 3.998 (Simulation time: 01 hr 18 min 43 sec)
Heartbeat CPU 6 instructions: 80000001 cycles: 20008181 heartbeat IPC: 4 cumulative IPC: 3.998 (Simulation time: 01 hr 18 min 43 sec)
Heartbeat CPU 7 instructions: 80000002 cycles: 20008302 heartbeat IPC: 4 cumulative IPC: 3.998 (Simulation time: 01 hr 18 min 43 sec)
Heartbeat CPU 1 instructions: 60000010 cycles: 22485109 heartbeat IPC: 2.763 cumulative IPC: 2.668 (Simulation time: 01 hr 28 min 17 sec)
Heartbeat CPU 3 instructions: 90000002 cycles: 22508105 heartbeat IPC: 4 cumulative IPC: 3.999 (Simulation time: 01 hr 28 min 22 sec)
Heartbeat CPU 2 instructions: 90000003 cycles: 22508181 heartbeat IPC: 4 cumulative IPC: 3.999 (Simulation time: 01 hr 28 min 22 sec)
Heartbeat CPU 6 instructions: 90000001 cycles: 22508181 heartbeat IPC: 4 cumulative IPC: 3.999 (Simulation time: 01 hr 28 min 22 sec)
Heartbeat CPU 7 instructions: 90000002 cycles: 22508302 heartbeat IPC: 4 cumulative IPC: 3.999 (Simulation time: 01 hr 28 min 22 sec)
Heartbeat CPU 5 instructions: 60000010 cycles: 22563082 heartbeat IPC: 2.751 cumulative IPC: 2.659 (Simulation time: 01 hr 28 min 34 sec)
Heartbeat CPU 3 instructions: 100000002 cycles: 25008105 heartbeat IPC: 4 cumulative IPC: 3.999 (Simulation time: 01 hr 37 min 51 sec)
Heartbeat CPU 2 instructions: 100000003 cycles: 25008181 heartbeat IPC: 4 cumulative IPC: 3.999 (Simulation time: 01 hr 37 min 51 sec)
Heartbeat CPU 6 instructions: 100000001 cycles: 25008181 heartbeat IPC: 4 cumulative IPC: 3.999 (Simulation time: 01 hr 37 min 51 sec)
Heartbeat CPU 7 instructions: 100000002 cycles: 25008302 heartbeat IPC: 4 cumulative IPC: 3.999 (Simulation time: 01 hr 37 min 51 sec)
Heartbeat CPU 1 instructions: 70000012 cycles: 26176842 heartbeat IPC: 2.709 cumulative IPC: 2.674 (Simulation time: 01 hr 42 min 22 sec)
Heartbeat CPU 5 instructions: 70000012 cycles: 26269641 heartbeat IPC: 2.698 cumulative IPC: 2.665 (Simulation time: 01 hr 42 min 43 sec)
Heartbeat CPU 3 instructions: 110000002 cycles: 27508105 heartbeat IPC: 4 cumulative IPC: 3.999 (Simulation time: 01 hr 47 min 17 sec)
Heartbeat CPU 2 instructions: 110000003 cycles: 27508181 heartbeat IPC: 4 cumulative IPC: 3.999 (Simulation time: 01 hr 47 min 17 sec)
Heartbeat CPU 6 instructions: 110000001 cycles: 27508181 heartbeat IPC: 4 cumulative IPC: 3.999 (Simulation time: 01 hr 47 min 17 sec)
Heartbeat CPU 7 instructions: 110000002 cycles: 27508302 heartbeat IPC: 4 cumulative IPC: 3.999 (Simulation time: 01 hr 47 min 17 sec)
Heartbeat CPU 0 instructions: 30000000 cycles: 28995103 heartbeat IPC: 0.6604 cumulative IPC: 1.035 (Simulation time: 01 hr 52 min 52 sec)
Heartbeat CPU 4 instructions: 30000005 cycles: 28995123 heartbeat IPC: 0.6604 cumulative IPC: 1.035 (Simulation time: 01 hr 52 min 52 sec)
Heartbeat CPU 1 instructions: 80000012 cycles: 29862453 heartbeat IPC: 2.713 cumulative IPC: 2.679 (Simulation time: 01 hr 56 min 08 sec)
Heartbeat CPU 5 instructions: 80000012 cycles: 29970692 heartbeat IPC: 2.702 cumulative IPC: 2.669 (Simulation time: 01 hr 56 min 32 sec)
Heartbeat CPU 3 instructions: 120000002 cycles: 30008105 heartbeat IPC: 4 cumulative IPC: 3.999 (Simulation time: 01 hr 56 min 41 sec)
Heartbeat CPU 2 instructions: 120000003 cycles: 30008181 heartbeat IPC: 4 cumulative IPC: 3.999 (Simulation time: 01 hr 56 min 41 sec)
Heartbeat CPU 6 instructions: 120000001 cycles: 30008181 heartbeat IPC: 4 cumulative IPC: 3.999 (Simulation time: 01 hr 56 min 41 sec)
Heartbeat CPU 7 instructions: 120000002 cycles: 30008302 heartbeat IPC: 4 cumulative IPC: 3.999 (Simulation time: 01 hr 56 min 41 sec)
Heartbeat CPU 3 instructions: 130000002 cycles: 32508105 heartbeat IPC: 4 cumulative IPC: 3.999 (Simulation time: 02 hr 05 min 54 sec)
Heartbeat CPU 2 instructions: 130000003 cycles: 32508181 heartbeat IPC: 4 cumulative IPC: 3.999 (Simulation time: 02 hr 05 min 54 sec)
Heartbeat CPU 6 instructions: 130000001 cycles: 32508181 heartbeat IPC: 4 cumulative IPC: 3.999 (Simulation time: 02 hr 05 min 54 sec)
Heartbeat CPU 7 instructions: 130000002 cycles: 32508302 heartbeat IPC: 4 cumulative IPC: 3.999 (Simulation time: 02 hr 05 min 54 sec)
Heartbeat CPU 1 instructions: 90000015 cycles: 33522445 heartbeat IPC: 2.732 cumulative IPC: 2.685 (Simulation time: 02 hr 09 min 30 sec)
Heartbeat CPU 5 instructions: 90000015 cycles: 33645521 heartbeat IPC: 2.721 cumulative IPC: 2.675 (Simulation time: 02 hr 09 min 58 sec)
Heartbeat CPU 3 instructions: 140000002 cycles: 35008105 heartbeat IPC: 4 cumulative IPC: 3.999 (Simulation time: 02 hr 15 min 01 sec)
Heartbeat CPU 2 instructions: 140000003 cycles: 35008181 heartbeat IPC: 4 cumulative IPC: 3.999 (Simulation time: 02 hr 15 min 01 sec)
Heartbeat CPU 6 instructions: 140000001 cycles: 35008181 heartbeat IPC: 4 cumulative IPC: 3.999 (Simulation time: 02 hr 15 min 01 sec)
Heartbeat CPU 7 instructions: 140000002 cycles: 35008302 heartbeat IPC: 4 cumulative IPC: 3.999 (Simulation time: 02 hr 15 min 01 sec)
Heartbeat CPU 1 instructions: 100000016 cycles: 37194247 heartbeat IPC: 2.723 cumulative IPC: 2.689 (Simulation time: 02 hr 23 min 17 sec)
Heartbeat CPU 5 instructions: 100000016 cycles: 37332483 heartbeat IPC: 2.712 cumulative IPC: 2.679 (Simulation time: 02 hr 23 min 49 sec)
Heartbeat CPU 3 instructions: 150000002 cycles: 37508105 heartbeat IPC: 4 cumulative IPC: 3.999 (Simulation time: 02 hr 24 min 29 sec)
Heartbeat CPU 2 instructions: 150000003 cycles: 37508181 heartbeat IPC: 4 cumulative IPC: 3.999 (Simulation time: 02 hr 24 min 29 sec)
Heartbeat CPU 6 instructions: 150000001 cycles: 37508181 heartbeat IPC: 4 cumulative IPC: 3.999 (Simulation time: 02 hr 24 min 29 sec)
Heartbeat CPU 7 instructions: 150000002 cycles: 37508302 heartbeat IPC: 4 cumulative IPC: 3.999 (Simulation time: 02 hr 24 min 29 sec)
Heartbeat CPU 3 instructions: 160000002 cycles: 40008105 heartbeat IPC: 4 cumulative IPC: 3.999 (Simulation time: 02 hr 34 min 02 sec)
Heartbeat CPU 2 instructions: 160000003 cycles: 40008181 heartbeat IPC: 4 cumulative IPC: 3.999 (Simulation time: 02 hr 34 min 02 sec)
Heartbeat CPU 6 instructions: 160000001 cycles: 40008181 heartbeat IPC: 4 cumulative IPC: 3.999 (Simulation time: 02 hr 34 min 02 sec)
Heartbeat CPU 7 instructions: 160000002 cycles: 40008302 heartbeat IPC: 4 cumulative IPC: 3.999 (Simulation time: 02 hr 34 min 02 sec)
Heartbeat CPU 1 instructions: 110000016 cycles: 40863085 heartbeat IPC: 2.726 cumulative IPC: 2.692 (Simulation time: 02 hr 37 min 15 sec)
Heartbeat CPU 5 instructions: 110000016 cycles: 41016677 heartbeat IPC: 2.714 cumulative IPC: 2.682 (Simulation time: 02 hr 37 min 50 sec)
Heartbeat CPU 3 instructions: 170000002 cycles: 42508105 heartbeat IPC: 4 cumulative IPC: 3.999 (Simulation time: 02 hr 43 min 24 sec)
Heartbeat CPU 2 instructions: 170000003 cycles: 42508181 heartbeat IPC: 4 cumulative IPC: 3.999 (Simulation time: 02 hr 43 min 24 sec)
Heartbeat CPU 6 instructions: 170000001 cycles: 42508181 heartbeat IPC: 4 cumulative IPC: 3.999 (Simulation time: 02 hr 43 min 24 sec)
Heartbeat CPU 7 instructions: 170000002 cycles: 42508302 heartbeat IPC: 4 cumulative IPC: 3.999 (Simulation time: 02 hr 43 min 24 sec)
Heartbeat CPU 4 instructions: 40000005 cycles: 44448076 heartbeat IPC: 0.6471 cumulative IPC: 0.8999 (Simulation time: 02 hr 50 min 38 sec)
Heartbeat CPU 0 instructions: 40000000 cycles: 44448293 heartbeat IPC: 0.6471 cumulative IPC: 0.8999 (Simulation time: 02 hr 50 min 38 sec)
Heartbeat CPU 1 instructions: 120000018 cycles: 44589815 heartbeat IPC: 2.683 cumulative IPC: 2.691 (Simulation time: 02 hr 51 min 09 sec)
Heartbeat CPU 5 instructions: 120000018 cycles: 44758215 heartbeat IPC: 2.673 cumulative IPC: 2.681 (Simulation time: 02 hr 51 min 46 sec)
Heartbeat CPU 3 instructions: 180000002 cycles: 45008105 heartbeat IPC: 4 cumulative IPC: 3.999 (Simulation time: 02 hr 52 min 43 sec)
Heartbeat CPU 2 instructions: 180000003 cycles: 45008181 heartbeat IPC: 4 cumulative IPC: 3.999 (Simulation time: 02 hr 52 min 43 sec)
Heartbeat CPU 6 instructions: 180000001 cycles: 45008181 heartbeat IPC: 4 cumulative IPC: 3.999 (Simulation time: 02 hr 52 min 43 sec)
Heartbeat CPU 7 instructions: 180000002 cycles: 45008302 heartbeat IPC: 4 cumulative IPC: 3.999 (Simulation time: 02 hr 52 min 43 sec)
Heartbeat CPU 3 instructions: 190000002 cycles: 47508105 heartbeat IPC: 4 cumulative IPC: 3.999 (Simulation time: 03 hr 02 min 08 sec)
Heartbeat CPU 2 instructions: 190000003 cycles: 47508181 heartbeat IPC: 4 cumulative IPC: 3.999 (Simulation time: 03 hr 02 min 08 sec)
Heartbeat CPU 6 instructions: 190000001 cycles: 47508181 heartbeat IPC: 4 cumulative IPC: 3.999 (Simulation time: 03 hr 02 min 08 sec)
Heartbeat CPU 7 instructions: 190000002 cycles: 47508302 heartbeat IPC: 4 cumulative IPC: 3.999 (Simulation time: 03 hr 02 min 08 sec)
Heartbeat CPU 1 instructions: 130000020 cycles: 48279627 heartbeat IPC: 2.71 cumulative IPC: 2.693 (Simulation time: 03 hr 05 min 03 sec)
Heartbeat CPU 5 instructions: 130000020 cycles: 48463028 heartbeat IPC: 2.699 cumulative IPC: 2.682 (Simulation time: 03 hr 05 min 45 sec)
Heartbeat CPU 3 instructions: 200000002 cycles: 50008105 heartbeat IPC: 4 cumulative IPC: 3.999 (Simulation time: 03 hr 11 min 26 sec)
Heartbeat CPU 2 instructions: 200000003 cycles: 50008181 heartbeat IPC: 4 cumulative IPC: 3.999 (Simulation time: 03 hr 11 min 26 sec)
Heartbeat CPU 6 instructions: 200000001 cycles: 50008181 heartbeat IPC: 4 cumulative IPC: 3.999 (Simulation time: 03 hr 11 min 26 sec)
Heartbeat CPU 7 instructions: 200000002 cycles: 50008302 heartbeat IPC: 4 cumulative IPC: 3.999 (Simulation time: 03 hr 11 min 26 sec)
Heartbeat CPU 1 instructions: 140000020 cycles: 51847484 heartbeat IPC: 2.803 cumulative IPC: 2.7 (Simulation time: 03 hr 18 min 11 sec)
Heartbeat CPU 5 instructions: 140000020 cycles: 52045821 heartbeat IPC: 2.791 cumulative IPC: 2.69 (Simulation time: 03 hr 18 min 57 sec)
Heartbeat CPU 3 instructions: 210000002 cycles: 52508105 heartbeat IPC: 4 cumulative IPC: 3.999 (Simulation time: 03 hr 20 min 43 sec)
Heartbeat CPU 2 instructions: 210000003 cycles: 52508181 heartbeat IPC: 4 cumulative IPC: 3.999 (Simulation time: 03 hr 20 min 43 sec)
Heartbeat CPU 6 instructions: 210000001 cycles: 52508181 heartbeat IPC: 4 cumulative IPC: 3.999 (Simulation time: 03 hr 20 min 43 sec)
Heartbeat CPU 7 instructions: 210000002 cycles: 52508302 heartbeat IPC: 4 cumulative IPC: 3.999 (Simulation time: 03 hr 20 min 43 sec)
Heartbeat CPU 3 instructions: 220000002 cycles: 55008105 heartbeat IPC: 4 cumulative IPC: 3.999 (Simulation time: 03 hr 30 min 18 sec)
Heartbeat CPU 2 instructions: 220000003 cycles: 55008181 heartbeat IPC: 4 cumulative IPC: 3.999 (Simulation time: 03 hr 30 min 18 sec)
Heartbeat CPU 6 instructions: 220000001 cycles: 55008181 heartbeat IPC: 4 cumulative IPC: 3.999 (Simulation time: 03 hr 30 min 18 sec)
Heartbeat CPU 7 instructions: 220000002 cycles: 55008302 heartbeat IPC: 4 cumulative IPC: 3.999 (Simulation time: 03 hr 30 min 18 sec)
Heartbeat CPU 1 instructions: 150000023 cycles: 55805669 heartbeat IPC: 2.526 cumulative IPC: 2.688 (Simulation time: 03 hr 33 min 28 sec)
Heartbeat CPU 5 instructions: 150000023 cycles: 56002889 heartbeat IPC: 2.527 cumulative IPC: 2.678 (Simulation time: 03 hr 34 min 15 sec)
Heartbeat CPU 3 instructions: 230000002 cycles: 57508105 heartbeat IPC: 4 cumulative IPC: 3.999 (Simulation time: 03 hr 39 min 03 sec)
Heartbeat CPU 2 instructions: 230000003 cycles: 57508181 heartbeat IPC: 4 cumulative IPC: 3.999 (Simulation time: 03 hr 39 min 03 sec)
Heartbeat CPU 6 instructions: 230000001 cycles: 57508181 heartbeat IPC: 4 cumulative IPC: 3.999 (Simulation time: 03 hr 39 min 03 sec)
Heartbeat CPU 7 instructions: 230000002 cycles: 57508302 heartbeat IPC: 4 cumulative IPC: 3.999 (Simulation time: 03 hr 39 min 03 sec)
Heartbeat CPU 1 instructions: 160000023 cycles: 59638795 heartbeat IPC: 2.609 cumulative IPC: 2.683 (Simulation time: 03 hr 47 min 09 sec)
Heartbeat CPU 5 instructions: 160000023 cycles: 59851353 heartbeat IPC: 2.598 cumulative IPC: 2.673 (Simulation time: 03 hr 47 min 58 sec)
Heartbeat CPU 3 instructions: 240000002 cycles: 60008105 heartbeat IPC: 4 cumulative IPC: 3.999 (Simulation time: 03 hr 48 min 34 sec)
Heartbeat CPU 2 instructions: 240000003 cycles: 60008181 heartbeat IPC: 4 cumulative IPC: 3.999 (Simulation time: 03 hr 48 min 35 sec)
Heartbeat CPU 6 instructions: 240000001 cycles: 60008181 heartbeat IPC: 4 cumulative IPC: 3.999 (Simulation time: 03 hr 48 min 35 sec)
Heartbeat CPU 7 instructions: 240000002 cycles: 60008302 heartbeat IPC: 4 cumulative IPC: 3.999 (Simulation time: 03 hr 48 min 35 sec)
Warmup finished CPU 4 instructions: 50000000 cycles: 60117469 cumulative IPC: 0.8317 (Simulation time: 03 hr 49 min 00 sec)
Heartbeat CPU 4 instructions: 50000005 cycles: 60117480 heartbeat IPC: 0.6382 cumulative IPC: 0.8317 (Simulation time: 03 hr 49 min 00 sec)
Heartbeat CPU 0 instructions: 50000000 cycles: 60117865 heartbeat IPC: 0.6382 cumulative IPC: 0.8317 (Simulation time: 03 hr 49 min 00 sec)
Warmup finished CPU 0 instructions: 50000000 cycles: 60117865 cumulative IPC: 0.8317 (Simulation time: 03 hr 49 min 00 sec)
Warmup complete CPU 7 instructions: 240438254 cycles: 60117865 cumulative IPC: 3.999 (Simulation time: 03 hr 49 min 00 sec)
Warmup complete CPU 6 instructions: 240438737 cycles: 60117865 cumulative IPC: 3.999 (Simulation time: 03 hr 49 min 00 sec)
Warmup complete CPU 5 instructions: 160723196 cycles: 60117865 cumulative IPC: 2.673 (Simulation time: 03 hr 49 min 00 sec)
Warmup complete CPU 4 instructions: 50000376 cycles: 60117865 cumulative IPC: 0.8317 (Simulation time: 03 hr 49 min 00 sec)
Warmup complete CPU 3 instructions: 240439042 cycles: 60117865 cumulative IPC: 3.999 (Simulation time: 03 hr 49 min 00 sec)
Warmup complete CPU 2 instructions: 240438739 cycles: 60117865 cumulative IPC: 3.999 (Simulation time: 03 hr 49 min 00 sec)
Warmup complete CPU 1 instructions: 161311705 cycles: 60117865 cumulative IPC: 2.683 (Simulation time: 03 hr 49 min 00 sec)
Warmup complete CPU 0 instructions: 50000000 cycles: 60117865 cumulative IPC: 0.8317 (Simulation time: 03 hr 49 min 00 sec)
Heartbeat CPU 3 instructions: 250000002 cycles: 62508105 heartbeat IPC: 4 cumulative IPC: 4 (Simulation time: 03 hr 58 min 05 sec)
Heartbeat CPU 2 instructions: 250000003 cycles: 62508181 heartbeat IPC: 4 cumulative IPC: 4 (Simulation time: 03 hr 58 min 05 sec)
Heartbeat CPU 6 instructions: 250000001 cycles: 62508181 heartbeat IPC: 4 cumulative IPC: 4 (Simulation time: 03 hr 58 min 05 sec)
Heartbeat CPU 7 instructions: 250000002 cycles: 62508302 heartbeat IPC: 4 cumulative IPC: 4 (Simulation time: 03 hr 58 min 05 sec)
Heartbeat CPU 1 instructions: 170000026 cycles: 64595842 heartbeat IPC: 2.017 cumulative IPC: 1.94 (Simulation time: 04 hr 06 min 05 sec)
Heartbeat CPU 5 instructions: 170000026 cycles: 64595981 heartbeat IPC: 2.108 cumulative IPC: 2.072 (Simulation time: 04 hr 06 min 05 sec)
Heartbeat CPU 3 instructions: 260000002 cycles: 65008105 heartbeat IPC: 4 cumulative IPC: 4 (Simulation time: 04 hr 07 min 36 sec)
Heartbeat CPU 2 instructions: 260000003 cycles: 65008181 heartbeat IPC: 4 cumulative IPC: 4 (Simulation time: 04 hr 07 min 36 sec)
Heartbeat CPU 6 instructions: 260000001 cycles: 65008181 heartbeat IPC: 4 cumulative IPC: 4 (Simulation time: 04 hr 07 min 36 sec)
Heartbeat CPU 7 instructions: 260000002 cycles: 65008302 heartbeat IPC: 4 cumulative IPC: 4 (Simulation time: 04 hr 07 min 36 sec)
Heartbeat CPU 3 instructions: 270000002 cycles: 67508105 heartbeat IPC: 4 cumulative IPC: 4 (Simulation time: 04 hr 16 min 46 sec)
Heartbeat CPU 2 instructions: 270000003 cycles: 67508181 heartbeat IPC: 4 cumulative IPC: 4 (Simulation time: 04 hr 16 min 46 sec)
Heartbeat CPU 6 instructions: 270000001 cycles: 67508181 heartbeat IPC: 4 cumulative IPC: 4 (Simulation time: 04 hr 16 min 46 sec)
Heartbeat CPU 7 instructions: 270000002 cycles: 67508302 heartbeat IPC: 4 cumulative IPC: 4 (Simulation time: 04 hr 16 min 46 sec)
Heartbeat CPU 1 instructions: 180000028 cycles: 69604198 heartbeat IPC: 1.997 cumulative IPC: 1.97 (Simulation time: 04 hr 24 min 15 sec)
Heartbeat CPU 5 instructions: 180000028 cycles: 69604217 heartbeat IPC: 1.997 cumulative IPC: 2.032 (Simulation time: 04 hr 24 min 15 sec)
Heartbeat CPU 3 instructions: 280000002 cycles: 70008105 heartbeat IPC: 4 cumulative IPC: 4 (Simulation time: 04 hr 25 min 48 sec)
Heartbeat CPU 2 instructions: 280000003 cycles: 70008181 heartbeat IPC: 4 cumulative IPC: 4 (Simulation time: 04 hr 25 min 48 sec)
Heartbeat CPU 6 instructions: 280000001 cycles: 70008181 heartbeat IPC: 4 cumulative IPC: 4 (Simulation time: 04 hr 25 min 48 sec)
Heartbeat CPU 7 instructions: 280000002 cycles: 70008302 heartbeat IPC: 4 cumulative IPC: 4 (Simulation time: 04 hr 25 min 48 sec)
Heartbeat CPU 3 instructions: 290000002 cycles: 72508105 heartbeat IPC: 4 cumulative IPC: 4 (Simulation time: 04 hr 35 min 35 sec)
Heartbeat CPU 2 instructions: 290000003 cycles: 72508181 heartbeat IPC: 4 cumulative IPC: 4 (Simulation time: 04 hr 35 min 35 sec)
Heartbeat CPU 6 instructions: 290000001 cycles: 72508181 heartbeat IPC: 4 cumulative IPC: 4 (Simulation time: 04 hr 35 min 35 sec)
Heartbeat CPU 7 instructions: 290000002 cycles: 72508302 heartbeat IPC: 4 cumulative IPC: 4 (Simulation time: 04 hr 35 min 36 sec)
Heartbeat CPU 1 instructions: 190000028 cycles: 74462510 heartbeat IPC: 2.058 cumulative IPC: 2 (Simulation time: 04 hr 43 min 26 sec)
Heartbeat CPU 5 instructions: 190000028 cycles: 74462680 heartbeat IPC: 2.058 cumulative IPC: 2.041 (Simulation time: 04 hr 43 min 26 sec)
Heartbeat CPU 3 instructions: 300000002 cycles: 75008105 heartbeat IPC: 4 cumulative IPC: 4 (Simulation time: 04 hr 45 min 38 sec)
Heartbeat CPU 2 instructions: 300000003 cycles: 75008181 heartbeat IPC: 4 cumulative IPC: 4 (Simulation time: 04 hr 45 min 38 sec)
Heartbeat CPU 6 instructions: 300000001 cycles: 75008181 heartbeat IPC: 4 cumulative IPC: 4 (Simulation time: 04 hr 45 min 38 sec)
Heartbeat CPU 7 instructions: 300000002 cycles: 75008302 heartbeat IPC: 4 cumulative IPC: 4 (Simulation time: 04 hr 45 min 38 sec)
Heartbeat CPU 3 instructions: 310000002 cycles: 77508105 heartbeat IPC: 4 cumulative IPC: 4 (Simulation time: 04 hr 55 min 45 sec)
Heartbeat CPU 2 instructions: 310000003 cycles: 77508181 heartbeat IPC: 4 cumulative IPC: 4 (Simulation time: 04 hr 55 min 45 sec)
Heartbeat CPU 6 instructions: 310000001 cycles: 77508181 heartbeat IPC: 4 cumulative IPC: 4 (Simulation time: 04 hr 55 min 45 sec)
Heartbeat CPU 7 instructions: 310000002 cycles: 77508302 heartbeat IPC: 4 cumulative IPC: 4 (Simulation time: 04 hr 55 min 45 sec)
Heartbeat CPU 1 instructions: 200000028 cycles: 79179986 heartbeat IPC: 2.12 cumulative IPC: 2.03 (Simulation time: 05 hr 02 min 18 sec)
Heartbeat CPU 5 instructions: 200000028 cycles: 79180420 heartbeat IPC: 2.12 cumulative IPC: 2.06 (Simulation time: 05 hr 02 min 18 sec)
Heartbeat CPU 0 instructions: 60000004 cycles: 79709043 heartbeat IPC: 0.5104 cumulative IPC: 0.5104 (Simulation time: 05 hr 04 min 14 sec)
Heartbeat CPU 4 instructions: 60000007 cycles: 79709097 heartbeat IPC: 0.5104 cumulative IPC: 0.5104 (Simulation time: 05 hr 04 min 14 sec)
Heartbeat CPU 3 instructions: 320000002 cycles: 80008105 heartbeat IPC: 4 cumulative IPC: 4 (Simulation time: 05 hr 05 min 20 sec)
Heartbeat CPU 2 instructions: 320000003 cycles: 80008181 heartbeat IPC: 4 cumulative IPC: 4 (Simulation time: 05 hr 05 min 20 sec)
Heartbeat CPU 6 instructions: 320000001 cycles: 80008181 heartbeat IPC: 4 cumulative IPC: 4 (Simulation time: 05 hr 05 min 20 sec)
Heartbeat CPU 7 instructions: 320000002 cycles: 80008302 heartbeat IPC: 4 cumulative IPC: 4 (Simulation time: 05 hr 05 min 20 sec)
Heartbeat CPU 3 instructions: 330000002 cycles: 82508105 heartbeat IPC: 4 cumulative IPC: 4 (Simulation time: 05 hr 14 min 48 sec)
Heartbeat CPU 2 instructions: 330000003 cycles: 82508181 heartbeat IPC: 4 cumulative IPC: 4 (Simulation time: 05 hr 14 min 48 sec)
Heartbeat CPU 6 instructions: 330000001 cycles: 82508181 heartbeat IPC: 4 cumulative IPC: 4 (Simulation time: 05 hr 14 min 48 sec)
Heartbeat CPU 7 instructions: 330000002 cycles: 82508302 heartbeat IPC: 4 cumulative IPC: 4 (Simulation time: 05 hr 14 min 48 sec)
Heartbeat CPU 5 instructions: 210000031 cycles: 84034584 heartbeat IPC: 2.06 cumulative IPC: 2.06 (Simulation time: 05 hr 20 min 25 sec)
Heartbeat CPU 1 instructions: 210000031 cycles: 84034584 heartbeat IPC: 2.06 cumulative IPC: 2.036 (Simulation time: 05 hr 20 min 25 sec)
Heartbeat CPU 3 instructions: 340000002 cycles: 85008105 heartbeat IPC: 4 cumulative IPC: 4 (Simulation time: 05 hr 24 min 04 sec)
Heartbeat CPU 2 instructions: 340000003 cycles: 85008181 heartbeat IPC: 4 cumulative IPC: 4 (Simulation time: 05 hr 24 min 04 sec)
Heartbeat CPU 6 instructions: 340000001 cycles: 85008181 heartbeat IPC: 4 cumulative IPC: 4 (Simulation time: 05 hr 24 min 04 sec)
Heartbeat CPU 7 instructions: 340000002 cycles: 85008302 heartbeat IPC: 4 cumulative IPC: 4 (Simulation time: 05 hr 24 min 04 sec)
Simulation finished CPU 7 instructions: 100000000 cycles: 25000000 cumulative IPC: 4 (Simulation time: 05 hr 24 min 29 sec)
Simulation finished CPU 6 instructions: 100000000 cycles: 25000000 cumulative IPC: 4 (Simulation time: 05 hr 24 min 29 sec)
Simulation finished CPU 3 instructions: 100000000 cycles: 25000000 cumulative IPC: 4 (Simulation time: 05 hr 24 min 29 sec)
Simulation finished CPU 2 instructions: 100000000 cycles: 25000000 cumulative IPC: 4 (Simulation time: 05 hr 24 min 29 sec)
Heartbeat CPU 3 instructions: 350000002 cycles: 87508105 heartbeat IPC: 4 cumulative IPC: 4 (Simulation time: 05 hr 33 min 27 sec)
Heartbeat CPU 2 instructions: 350000003 cycles: 87508181 heartbeat IPC: 4 cumulative IPC: 4 (Simulation time: 05 hr 33 min 27 sec)
Heartbeat CPU 6 instructions: 350000001 cycles: 87508181 heartbeat IPC: 4 cumulative IPC: 4 (Simulation time: 05 hr 33 min 27 sec)
Heartbeat CPU 7 instructions: 350000002 cycles: 87508302 heartbeat IPC: 4 cumulative IPC: 4 (Simulation time: 05 hr 33 min 27 sec)
Heartbeat CPU 1 instructions: 220000031 cycles: 88976666 heartbeat IPC: 2.023 cumulative IPC: 2.034 (Simulation time: 05 hr 38 min 57 sec)
Heartbeat CPU 5 instructions: 220000031 cycles: 88976739 heartbeat IPC: 2.023 cumulative IPC: 2.054 (Simulation time: 05 hr 38 min 57 sec)
Heartbeat CPU 3 instructions: 360000002 cycles: 90008105 heartbeat IPC: 4 cumulative IPC: 4 (Simulation time: 05 hr 42 min 46 sec)
Heartbeat CPU 2 instructions: 360000003 cycles: 90008181 heartbeat IPC: 4 cumulative IPC: 4 (Simulation time: 05 hr 42 min 46 sec)
Heartbeat CPU 6 instructions: 360000001 cycles: 90008181 heartbeat IPC: 4 cumulative IPC: 4 (Simulation time: 05 hr 42 min 46 sec)
Heartbeat CPU 7 instructions: 360000002 cycles: 90008302 heartbeat IPC: 4 cumulative IPC: 4 (Simulation time: 05 hr 42 min 46 sec)
Heartbeat CPU 3 instructions: 370000002 cycles: 92508105 heartbeat IPC: 4 cumulative IPC: 4 (Simulation time: 05 hr 52 min 01 sec)
Heartbeat CPU 2 instructions: 370000003 cycles: 92508181 heartbeat IPC: 4 cumulative IPC: 4 (Simulation time: 05 hr 52 min 01 sec)
Heartbeat CPU 6 instructions: 370000001 cycles: 92508181 heartbeat IPC: 4 cumulative IPC: 4 (Simulation time: 05 hr 52 min 01 sec)
Heartbeat CPU 7 instructions: 370000002 cycles: 92508302 heartbeat IPC: 4 cumulative IPC: 4 (Simulation time: 05 hr 52 min 01 sec)
Heartbeat CPU 1 instructions: 230000032 cycles: 93835183 heartbeat IPC: 2.058 cumulative IPC: 2.037 (Simulation time: 05 hr 57 min 06 sec)
Heartbeat CPU 5 instructions: 230000034 cycles: 93835209 heartbeat IPC: 2.058 cumulative IPC: 2.055 (Simulation time: 05 hr 57 min 06 sec)
Heartbeat CPU 3 instructions: 380000002 cycles: 95008105 heartbeat IPC: 4 cumulative IPC: 4 (Simulation time: 06 hr 01 min 29 sec)
Heartbeat CPU 2 instructions: 380000003 cycles: 95008181 heartbeat IPC: 4 cumulative IPC: 4 (Simulation time: 06 hr 01 min 29 sec)
Heartbeat CPU 6 instructions: 380000001 cycles: 95008181 heartbeat IPC: 4 cumulative IPC: 4 (Simulation time: 06 hr 01 min 29 sec)
Heartbeat CPU 7 instructions: 380000002 cycles: 95008302 heartbeat IPC: 4 cumulative IPC: 4 (Simulation time: 06 hr 01 min 29 sec)
Heartbeat CPU 3 instructions: 390000002 cycles: 97508105 heartbeat IPC: 4 cumulative IPC: 4 (Simulation time: 06 hr 11 min 00 sec)
Heartbeat CPU 2 instructions: 390000003 cycles: 97508181 heartbeat IPC: 4 cumulative IPC: 4 (Simulation time: 06 hr 11 min 00 sec)
Heartbeat CPU 6 instructions: 390000001 cycles: 97508181 heartbeat IPC: 4 cumulative IPC: 4 (Simulation time: 06 hr 11 min 00 sec)
Heartbeat CPU 7 instructions: 390000002 cycles: 97508302 heartbeat IPC: 4 cumulative IPC: 4 (Simulation time: 06 hr 11 min 00 sec)
Heartbeat CPU 5 instructions: 240000035 cycles: 98736934 heartbeat IPC: 2.04 cumulative IPC: 2.053 (Simulation time: 06 hr 15 min 34 sec)
Heartbeat CPU 1 instructions: 240000033 cycles: 98736934 heartbeat IPC: 2.04 cumulative IPC: 2.038 (Simulation time: 06 hr 15 min 34 sec)
Heartbeat CPU 0 instructions: 70000007 cycles: 98975448 heartbeat IPC: 0.519 cumulative IPC: 0.5147 (Simulation time: 06 hr 16 min 27 sec)
Heartbeat CPU 4 instructions: 70000007 cycles: 98975610 heartbeat IPC: 0.519 cumulative IPC: 0.5147 (Simulation time: 06 hr 16 min 27 sec)
Heartbeat CPU 3 instructions: 400000002 cycles: 100008105 heartbeat IPC: 4 cumulative IPC: 4 (Simulation time: 06 hr 20 min 15 sec)
Heartbeat CPU 2 instructions: 400000003 cycles: 100008181 heartbeat IPC: 4 cumulative IPC: 4 (Simulation time: 06 hr 20 min 15 sec)
Heartbeat CPU 6 instructions: 400000001 cycles: 100008181 heartbeat IPC: 4 cumulative IPC: 4 (Simulation time: 06 hr 20 min 15 sec)
Heartbeat CPU 7 instructions: 400000002 cycles: 100008302 heartbeat IPC: 4 cumulative IPC: 4 (Simulation time: 06 hr 20 min 15 sec)
Heartbeat CPU 2 instructions: 410000003 cycles: 102508181 heartbeat IPC: 4 cumulative IPC: 4 (Simulation time: 06 hr 29 min 36 sec)
Heartbeat CPU 6 instructions: 410000001 cycles: 102508181 heartbeat IPC: 4 cumulative IPC: 4 (Simulation time: 06 hr 29 min 36 sec)
Heartbeat CPU 3 instructions: 410000004 cycles: 102508237 heartbeat IPC: 4 cumulative IPC: 4 (Simulation time: 06 hr 29 min 36 sec)
Heartbeat CPU 7 instructions: 410000002 cycles: 102508302 heartbeat IPC: 4 cumulative IPC: 4 (Simulation time: 06 hr 29 min 36 sec)
Heartbeat CPU 1 instructions: 250000035 cycles: 103731399 heartbeat IPC: 2.002 cumulative IPC: 2.034 (Simulation time: 06 hr 34 min 01 sec)
Heartbeat CPU 5 instructions: 250000035 cycles: 103731667 heartbeat IPC: 2.002 cumulative IPC: 2.047 (Simulation time: 06 hr 34 min 01 sec)
Heartbeat CPU 3 instructions: 420000004 cycles: 105008237 heartbeat IPC: 4 cumulative IPC: 4 (Simulation time: 06 hr 38 min 37 sec)
Heartbeat CPU 6 instructions: 420000004 cycles: 105008247 heartbeat IPC: 4 cumulative IPC: 4 (Simulation time: 06 hr 38 min 37 sec)
Heartbeat CPU 2 instructions: 420000004 cycles: 105008259 heartbeat IPC: 4 cumulative IPC: 4 (Simulation time: 06 hr 38 min 37 sec)
Heartbeat CPU 7 instructions: 420000002 cycles: 105008302 heartbeat IPC: 4 cumulative IPC: 4 (Simulation time: 06 hr 38 min 37 sec)
Heartbeat CPU 3 instructions: 430000004 cycles: 107508237 heartbeat IPC: 4 cumulative IPC: 4 (Simulation time: 06 hr 47 min 43 sec)
Heartbeat CPU 6 instructions: 430000004 cycles: 107508247 heartbeat IPC: 4 cumulative IPC: 4 (Simulation time: 06 hr 47 min 43 sec)
Heartbeat CPU 2 instructions: 430000004 cycles: 107508259 heartbeat IPC: 4 cumulative IPC: 4 (Simulation time: 06 hr 47 min 43 sec)
Heartbeat CPU 7 instructions: 430000002 cycles: 107508302 heartbeat IPC: 4 cumulative IPC: 4 (Simulation time: 06 hr 47 min 43 sec)
Heartbeat CPU 1 instructions: 260000038 cycles: 108763433 heartbeat IPC: 1.987 cumulative IPC: 2.029 (Simulation time: 06 hr 52 min 11 sec)
Heartbeat CPU 5 instructions: 260000038 cycles: 108763452 heartbeat IPC: 1.987 cumulative IPC: 2.041 (Simulation time: 06 hr 52 min 11 sec)
Simulation finished CPU 5 instructions: 100000001 cycles: 49034007 cumulative IPC: 2.039 (Simulation time: 06 hr 53 min 27 sec)
Simulation finished CPU 1 instructions: 100000003 cycles: 49322706 cumulative IPC: 2.027 (Simulation time: 06 hr 54 min 29 sec)
Heartbeat CPU 3 instructions: 440000004 cycles: 110008237 heartbeat IPC: 4 cumulative IPC: 4 (Simulation time: 06 hr 56 min 37 sec)
Heartbeat CPU 6 instructions: 440000004 cycles: 110008247 heartbeat IPC: 4 cumulative IPC: 4 (Simulation time: 06 hr 56 min 37 sec)
Heartbeat CPU 2 instructions: 440000004 cycles: 110008259 heartbeat IPC: 4 cumulative IPC: 4 (Simulation time: 06 hr 56 min 37 sec)
Heartbeat CPU 7 instructions: 440000002 cycles: 110008302 heartbeat IPC: 4 cumulative IPC: 4 (Simulation time: 06 hr 56 min 37 sec)
Heartbeat CPU 3 instructions: 450000004 cycles: 112508237 heartbeat IPC: 4 cumulative IPC: 4 (Simulation time: 07 hr 06 min 00 sec)
Heartbeat CPU 6 instructions: 450000004 cycles: 112508247 heartbeat IPC: 4 cumulative IPC: 4 (Simulation time: 07 hr 06 min 00 sec)
Heartbeat CPU 2 instructions: 450000004 cycles: 112508259 heartbeat IPC: 4 cumulative IPC: 4 (Simulation time: 07 hr 06 min 00 sec)
Heartbeat CPU 7 instructions: 450000002 cycles: 112508302 heartbeat IPC: 4 cumulative IPC: 4 (Simulation time: 07 hr 06 min 00 sec)
Heartbeat CPU 1 instructions: 270000040 cycles: 113749440 heartbeat IPC: 2.006 cumulative IPC: 2.027 (Simulation time: 07 hr 10 min 34 sec)
Heartbeat CPU 5 instructions: 270000038 cycles: 113749458 heartbeat IPC: 2.006 cumulative IPC: 2.038 (Simulation time: 07 hr 10 min 34 sec)
Heartbeat CPU 3 instructions: 460000004 cycles: 115008237 heartbeat IPC: 4 cumulative IPC: 4 (Simulation time: 07 hr 15 min 12 sec)
Heartbeat CPU 6 instructions: 460000004 cycles: 115008247 heartbeat IPC: 4 cumulative IPC: 4 (Simulation time: 07 hr 15 min 12 sec)
Heartbeat CPU 2 instructions: 460000004 cycles: 115008259 heartbeat IPC: 4 cumulative IPC: 4 (Simulation time: 07 hr 15 min 12 sec)
Heartbeat CPU 7 instructions: 460000002 cycles: 115008302 heartbeat IPC: 4 cumulative IPC: 4 (Simulation time: 07 hr 15 min 12 sec)
Heartbeat CPU 3 instructions: 470000004 cycles: 117508237 heartbeat IPC: 4 cumulative IPC: 4 (Simulation time: 07 hr 24 min 19 sec)
Heartbeat CPU 6 instructions: 470000004 cycles: 117508247 heartbeat IPC: 4 cumulative IPC: 4 (Simulation time: 07 hr 24 min 19 sec)
Heartbeat CPU 2 instructions: 470000004 cycles: 117508259 heartbeat IPC: 4 cumulative IPC: 4 (Simulation time: 07 hr 24 min 19 sec)
Heartbeat CPU 7 instructions: 470000002 cycles: 117508302 heartbeat IPC: 4 cumulative IPC: 4 (Simulation time: 07 hr 24 min 19 sec)
Heartbeat CPU 0 instructions: 80000008 cycles: 117676593 heartbeat IPC: 0.5347 cumulative IPC: 0.5212 (Simulation time: 07 hr 24 min 54 sec)
Heartbeat CPU 4 instructions: 80000008 cycles: 117676627 heartbeat IPC: 0.5347 cumulative IPC: 0.5212 (Simulation time: 07 hr 24 min 54 sec)
Heartbeat CPU 1 instructions: 280000042 cycles: 119739426 heartbeat IPC: 1.669 cumulative IPC: 1.991 (Simulation time: 07 hr 32 min 21 sec)
Heartbeat CPU 5 instructions: 280000038 cycles: 119739462 heartbeat IPC: 1.669 cumulative IPC: 2.001 (Simulation time: 07 hr 32 min 21 sec)
Heartbeat CPU 3 instructions: 480000004 cycles: 120008237 heartbeat IPC: 4 cumulative IPC: 4 (Simulation time: 07 hr 33 min 20 sec)
Heartbeat CPU 6 instructions: 480000004 cycles: 120008247 heartbeat IPC: 4 cumulative IPC: 4 (Simulation time: 07 hr 33 min 20 sec)
Heartbeat CPU 2 instructions: 480000004 cycles: 120008259 heartbeat IPC: 4 cumulative IPC: 4 (Simulation time: 07 hr 33 min 20 sec)
Heartbeat CPU 7 instructions: 480000002 cycles: 120008302 heartbeat IPC: 4 cumulative IPC: 4 (Simulation time: 07 hr 33 min 20 sec)
Heartbeat CPU 3 instructions: 490000004 cycles: 122508237 heartbeat IPC: 4 cumulative IPC: 4 (Simulation time: 07 hr 42 min 07 sec)
Heartbeat CPU 6 instructions: 490000004 cycles: 122508247 heartbeat IPC: 4 cumulative IPC: 4 (Simulation time: 07 hr 42 min 07 sec)
Heartbeat CPU 2 instructions: 490000004 cycles: 122508259 heartbeat IPC: 4 cumulative IPC: 4 (Simulation time: 07 hr 42 min 07 sec)
Heartbeat CPU 7 instructions: 490000002 cycles: 122508302 heartbeat IPC: 4 cumulative IPC: 4 (Simulation time: 07 hr 42 min 07 sec)
Heartbeat CPU 3 instructions: 500000004 cycles: 125008237 heartbeat IPC: 4 cumulative IPC: 4 (Simulation time: 07 hr 51 min 11 sec)
Heartbeat CPU 6 instructions: 500000004 cycles: 125008247 heartbeat IPC: 4 cumulative IPC: 4 (Simulation time: 07 hr 51 min 11 sec)
Heartbeat CPU 2 instructions: 500000004 cycles: 125008259 heartbeat IPC: 4 cumulative IPC: 4 (Simulation time: 07 hr 51 min 11 sec)
Heartbeat CPU 7 instructions: 500000002 cycles: 125008302 heartbeat IPC: 4 cumulative IPC: 4 (Simulation time: 07 hr 51 min 11 sec)
Heartbeat CPU 1 instructions: 290000042 cycles: 126449426 heartbeat IPC: 1.49 cumulative IPC: 1.94 (Simulation time: 07 hr 56 min 25 sec)
Heartbeat CPU 5 instructions: 290000038 cycles: 126449588 heartbeat IPC: 1.49 cumulative IPC: 1.949 (Simulation time: 07 hr 56 min 25 sec)
Heartbeat CPU 3 instructions: 510000004 cycles: 127508237 heartbeat IPC: 4 cumulative IPC: 4 (Simulation time: 08 hr 00 min 20 sec)
Heartbeat CPU 6 instructions: 510000004 cycles: 127508247 heartbeat IPC: 4 cumulative IPC: 4 (Simulation time: 08 hr 00 min 20 sec)
Heartbeat CPU 2 instructions: 510000004 cycles: 127508259 heartbeat IPC: 4 cumulative IPC: 4 (Simulation time: 08 hr 00 min 20 sec)
Heartbeat CPU 7 instructions: 510000002 cycles: 127508302 heartbeat IPC: 4 cumulative IPC: 4 (Simulation time: 08 hr 00 min 20 sec)
Heartbeat CPU 3 instructions: 520000004 cycles: 130008237 heartbeat IPC: 4 cumulative IPC: 4 (Simulation time: 08 hr 09 min 40 sec)
Heartbeat CPU 6 instructions: 520000004 cycles: 130008247 heartbeat IPC: 4 cumulative IPC: 4 (Simulation time: 08 hr 09 min 40 sec)
Heartbeat CPU 2 instructions: 520000004 cycles: 130008259 heartbeat IPC: 4 cumulative IPC: 4 (Simulation time: 08 hr 09 min 40 sec)
Heartbeat CPU 7 instructions: 520000002 cycles: 130008302 heartbeat IPC: 4 cumulative IPC: 4 (Simulation time: 08 hr 09 min 40 sec)
Heartbeat CPU 1 instructions: 300000043 cycles: 131629493 heartbeat IPC: 1.93 cumulative IPC: 1.939 (Simulation time: 08 hr 15 min 30 sec)
Heartbeat CPU 5 instructions: 300000039 cycles: 131629510 heartbeat IPC: 1.931 cumulative IPC: 1.948 (Simulation time: 08 hr 15 min 30 sec)
Heartbeat CPU 3 instructions: 530000004 cycles: 132508237 heartbeat IPC: 4 cumulative IPC: 4 (Simulation time: 08 hr 18 min 45 sec)
Heartbeat CPU 6 instructions: 530000004 cycles: 132508247 heartbeat IPC: 4 cumulative IPC: 4 (Simulation time: 08 hr 18 min 45 sec)
Heartbeat CPU 2 instructions: 530000004 cycles: 132508259 heartbeat IPC: 4 cumulative IPC: 4 (Simulation time: 08 hr 18 min 45 sec)
Heartbeat CPU 7 instructions: 530000002 cycles: 132508302 heartbeat IPC: 4 cumulative IPC: 4 (Simulation time: 08 hr 18 min 45 sec)
*** Reached end of trace: (7, "/home/harshraj/COALESCE-Hashed-Perceptron-Cache-Replacement-Policy/simulator/traces/barnes_4t3.champsimtrace")
*** Reached end of trace: (3, "/home/harshraj/COALESCE-Hashed-Perceptron-Cache-Replacement-Policy/simulator/traces/barnes_4t3.champsimtrace")
Heartbeat CPU 6 instructions: 540000004 cycles: 135008247 heartbeat IPC: 4 cumulative IPC: 4 (Simulation time: 08 hr 28 min 20 sec)
Heartbeat CPU 2 instructions: 540000004 cycles: 135008259 heartbeat IPC: 4 cumulative IPC: 4 (Simulation time: 08 hr 28 min 20 sec)
Heartbeat CPU 3 instructions: 540000006 cycles: 135015855 heartbeat IPC: 3.988 cumulative IPC: 4 (Simulation time: 08 hr 28 min 22 sec)
Heartbeat CPU 7 instructions: 540000002 cycles: 135015864 heartbeat IPC: 3.988 cumulative IPC: 4 (Simulation time: 08 hr 28 min 22 sec)
Heartbeat CPU 1 instructions: 310000043 cycles: 136565137 heartbeat IPC: 2.026 cumulative IPC: 1.945 (Simulation time: 08 hr 33 min 53 sec)
Heartbeat CPU 5 instructions: 310000039 cycles: 136565280 heartbeat IPC: 2.026 cumulative IPC: 1.953 (Simulation time: 08 hr 33 min 53 sec)
Heartbeat CPU 0 instructions: 90000010 cycles: 137208910 heartbeat IPC: 0.512 cumulative IPC: 0.5189 (Simulation time: 08 hr 36 min 19 sec)
Heartbeat CPU 4 instructions: 90000010 cycles: 137208911 heartbeat IPC: 0.512 cumulative IPC: 0.5189 (Simulation time: 08 hr 36 min 19 sec)
Heartbeat CPU 6 instructions: 550000004 cycles: 137508247 heartbeat IPC: 4 cumulative IPC: 4 (Simulation time: 08 hr 37 min 27 sec)
Heartbeat CPU 2 instructions: 550000004 cycles: 137508259 heartbeat IPC: 4 cumulative IPC: 4 (Simulation time: 08 hr 37 min 27 sec)
Heartbeat CPU 3 instructions: 550000006 cycles: 137515855 heartbeat IPC: 4 cumulative IPC: 4 (Simulation time: 08 hr 37 min 28 sec)
Heartbeat CPU 7 instructions: 550000002 cycles: 137515864 heartbeat IPC: 4 cumulative IPC: 4 (Simulation time: 08 hr 37 min 28 sec)
*** Reached end of trace: (6, "/home/harshraj/COALESCE-Hashed-Perceptron-Cache-Replacement-Policy/simulator/traces/barnes_4t2.champsimtrace")
*** Reached end of trace: (2, "/home/harshraj/COALESCE-Hashed-Perceptron-Cache-Replacement-Policy/simulator/traces/barnes_4t2.champsimtrace")
Heartbeat CPU 6 instructions: 560000007 cycles: 140015260 heartbeat IPC: 3.989 cumulative IPC: 4 (Simulation time: 08 hr 46 min 42 sec)
Heartbeat CPU 2 instructions: 560000005 cycles: 140015274 heartbeat IPC: 3.989 cumulative IPC: 4 (Simulation time: 08 hr 46 min 42 sec)
Heartbeat CPU 3 instructions: 560000006 cycles: 140015855 heartbeat IPC: 4 cumulative IPC: 4 (Simulation time: 08 hr 46 min 42 sec)
Heartbeat CPU 7 instructions: 560000002 cycles: 140015864 heartbeat IPC: 4 cumulative IPC: 4 (Simulation time: 08 hr 46 min 42 sec)
Heartbeat CPU 1 instructions: 320000046 cycles: 141740148 heartbeat IPC: 1.932 cumulative IPC: 1.944 (Simulation time: 08 hr 53 min 12 sec)
Heartbeat CPU 5 instructions: 320000042 cycles: 141740596 heartbeat IPC: 1.932 cumulative IPC: 1.951 (Simulation time: 08 hr 53 min 12 sec)
Heartbeat CPU 6 instructions: 570000007 cycles: 142515260 heartbeat IPC: 4 cumulative IPC: 4 (Simulation time: 08 hr 56 min 01 sec)
Heartbeat CPU 2 instructions: 570000005 cycles: 142515274 heartbeat IPC: 4 cumulative IPC: 4 (Simulation time: 08 hr 56 min 01 sec)
Heartbeat CPU 3 instructions: 570000006 cycles: 142515855 heartbeat IPC: 4 cumulative IPC: 4 (Simulation time: 08 hr 56 min 02 sec)
Heartbeat CPU 7 instructions: 570000002 cycles: 142515864 heartbeat IPC: 4 cumulative IPC: 4 (Simulation time: 08 hr 56 min 02 sec)
Heartbeat CPU 6 instructions: 580000007 cycles: 145015260 heartbeat IPC: 4 cumulative IPC: 4 (Simulation time: 09 hr 05 min 32 sec)
Heartbeat CPU 2 instructions: 580000005 cycles: 145015274 heartbeat IPC: 4 cumulative IPC: 4 (Simulation time: 09 hr 05 min 32 sec)
Heartbeat CPU 3 instructions: 580000006 cycles: 145015855 heartbeat IPC: 4 cumulative IPC: 4 (Simulation time: 09 hr 05 min 32 sec)
Heartbeat CPU 7 instructions: 580000002 cycles: 145015864 heartbeat IPC: 4 cumulative IPC: 4 (Simulation time: 09 hr 05 min 32 sec)
Heartbeat CPU 1 instructions: 330000048 cycles: 146817200 heartbeat IPC: 1.97 cumulative IPC: 1.946 (Simulation time: 09 hr 12 min 34 sec)
Heartbeat CPU 5 instructions: 330000044 cycles: 146817437 heartbeat IPC: 1.97 cumulative IPC: 1.952 (Simulation time: 09 hr 12 min 35 sec)
Heartbeat CPU 6 instructions: 590000007 cycles: 147515260 heartbeat IPC: 4 cumulative IPC: 4 (Simulation time: 09 hr 15 min 15 sec)
Heartbeat CPU 2 instructions: 590000005 cycles: 147515274 heartbeat IPC: 4 cumulative IPC: 4 (Simulation time: 09 hr 15 min 15 sec)
Heartbeat CPU 3 instructions: 590000006 cycles: 147515855 heartbeat IPC: 4 cumulative IPC: 4 (Simulation time: 09 hr 15 min 15 sec)
Heartbeat CPU 7 instructions: 590000002 cycles: 147515864 heartbeat IPC: 4 cumulative IPC: 4 (Simulation time: 09 hr 15 min 15 sec)
Heartbeat CPU 6 instructions: 600000007 cycles: 150015260 heartbeat IPC: 4 cumulative IPC: 4 (Simulation time: 09 hr 24 min 39 sec)
Heartbeat CPU 2 instructions: 600000005 cycles: 150015274 heartbeat IPC: 4 cumulative IPC: 4 (Simulation time: 09 hr 24 min 39 sec)
Heartbeat CPU 3 instructions: 600000006 cycles: 150015855 heartbeat IPC: 4 cumulative IPC: 4 (Simulation time: 09 hr 24 min 39 sec)
Heartbeat CPU 7 instructions: 600000002 cycles: 150015864 heartbeat IPC: 4 cumulative IPC: 4 (Simulation time: 09 hr 24 min 39 sec)
Heartbeat CPU 1 instructions: 340000051 cycles: 151643205 heartbeat IPC: 2.072 cumulative IPC: 1.952 (Simulation time: 09 hr 30 min 36 sec)
Heartbeat CPU 5 instructions: 340000047 cycles: 151643415 heartbeat IPC: 2.072 cumulative IPC: 1.959 (Simulation time: 09 hr 30 min 36 sec)
Heartbeat CPU 6 instructions: 610000007 cycles: 152515260 heartbeat IPC: 4 cumulative IPC: 4 (Simulation time: 09 hr 33 min 46 sec)
Heartbeat CPU 2 instructions: 610000005 cycles: 152515274 heartbeat IPC: 4 cumulative IPC: 4 (Simulation time: 09 hr 33 min 46 sec)
Heartbeat CPU 3 instructions: 610000006 cycles: 152515855 heartbeat IPC: 4 cumulative IPC: 4 (Simulation time: 09 hr 33 min 46 sec)
Heartbeat CPU 7 instructions: 610000002 cycles: 152515864 heartbeat IPC: 4 cumulative IPC: 4 (Simulation time: 09 hr 33 min 46 sec)
Heartbeat CPU 6 instructions: 620000007 cycles: 155015260 heartbeat IPC: 4 cumulative IPC: 4 (Simulation time: 09 hr 42 min 58 sec)
Heartbeat CPU 2 instructions: 620000005 cycles: 155015274 heartbeat IPC: 4 cumulative IPC: 4 (Simulation time: 09 hr 42 min 58 sec)
Heartbeat CPU 3 instructions: 620000006 cycles: 155015855 heartbeat IPC: 4 cumulative IPC: 4 (Simulation time: 09 hr 42 min 58 sec)
Heartbeat CPU 7 instructions: 620000002 cycles: 155015864 heartbeat IPC: 4 cumulative IPC: 4 (Simulation time: 09 hr 42 min 58 sec)
Heartbeat CPU 0 instructions: 100000010 cycles: 155685375 heartbeat IPC: 0.5412 cumulative IPC: 0.5232 (Simulation time: 09 hr 45 min 35 sec)
Heartbeat CPU 4 instructions: 100000010 cycles: 155685376 heartbeat IPC: 0.5412 cumulative IPC: 0.5232 (Simulation time: 09 hr 45 min 35 sec)
Heartbeat CPU 1 instructions: 350000052 cycles: 156075664 heartbeat IPC: 2.256 cumulative IPC: 1.966 (Simulation time: 09 hr 47 min 08 sec)
Heartbeat CPU 5 instructions: 350000048 cycles: 156075691 heartbeat IPC: 2.256 cumulative IPC: 1.973 (Simulation time: 09 hr 47 min 08 sec)
Heartbeat CPU 6 instructions: 630000007 cycles: 157515260 heartbeat IPC: 4 cumulative IPC: 4 (Simulation time: 09 hr 52 min 49 sec)
Heartbeat CPU 2 instructions: 630000005 cycles: 157515274 heartbeat IPC: 4 cumulative IPC: 4 (Simulation time: 09 hr 52 min 49 sec)
Heartbeat CPU 3 instructions: 630000006 cycles: 157515855 heartbeat IPC: 4 cumulative IPC: 4 (Simulation time: 09 hr 52 min 49 sec)
Heartbeat CPU 7 instructions: 630000002 cycles: 157515864 heartbeat IPC: 4 cumulative IPC: 4 (Simulation time: 09 hr 52 min 49 sec)
Heartbeat CPU 6 instructions: 640000007 cycles: 160015260 heartbeat IPC: 4 cumulative IPC: 4 (Simulation time: 10 hr 02 min 42 sec)
Heartbeat CPU 2 instructions: 640000005 cycles: 160015274 heartbeat IPC: 4 cumulative IPC: 4 (Simulation time: 10 hr 02 min 42 sec)
Heartbeat CPU 3 instructions: 640000006 cycles: 160015855 heartbeat IPC: 4 cumulative IPC: 4 (Simulation time: 10 hr 02 min 42 sec)
Heartbeat CPU 7 instructions: 640000002 cycles: 160015864 heartbeat IPC: 4 cumulative IPC: 4 (Simulation time: 10 hr 02 min 42 sec)
Heartbeat CPU 1 instructions: 360000055 cycles: 161066736 heartbeat IPC: 2.004 cumulative IPC: 1.968 (Simulation time: 10 hr 06 min 37 sec)
Heartbeat CPU 5 instructions: 360000051 cycles: 161066804 heartbeat IPC: 2.004 cumulative IPC: 1.974 (Simulation time: 10 hr 06 min 37 sec)
Heartbeat CPU 6 instructions: 650000007 cycles: 162515260 heartbeat IPC: 4 cumulative IPC: 4 (Simulation time: 10 hr 11 min 46 sec)
Heartbeat CPU 2 instructions: 650000005 cycles: 162515274 heartbeat IPC: 4 cumulative IPC: 4 (Simulation time: 10 hr 11 min 46 sec)
Heartbeat CPU 3 instructions: 650000006 cycles: 162515855 heartbeat IPC: 4 cumulative IPC: 4 (Simulation time: 10 hr 11 min 46 sec)
Heartbeat CPU 7 instructions: 650000002 cycles: 162515864 heartbeat IPC: 4 cumulative IPC: 4 (Simulation time: 10 hr 11 min 46 sec)
Heartbeat CPU 6 instructions: 660000007 cycles: 165015260 heartbeat IPC: 4 cumulative IPC: 4 (Simulation time: 10 hr 21 min 05 sec)
Heartbeat CPU 2 instructions: 660000005 cycles: 165015274 heartbeat IPC: 4 cumulative IPC: 4 (Simulation time: 10 hr 21 min 05 sec)
Heartbeat CPU 3 instructions: 660000006 cycles: 165015855 heartbeat IPC: 4 cumulative IPC: 4 (Simulation time: 10 hr 21 min 05 sec)
Heartbeat CPU 7 instructions: 660000002 cycles: 165015864 heartbeat IPC: 4 cumulative IPC: 4 (Simulation time: 10 hr 21 min 05 sec)
Heartbeat CPU 1 instructions: 370000056 cycles: 165747402 heartbeat IPC: 2.136 cumulative IPC: 1.976 (Simulation time: 10 hr 23 min 47 sec)
Heartbeat CPU 5 instructions: 370000052 cycles: 165747412 heartbeat IPC: 2.136 cumulative IPC: 1.981 (Simulation time: 10 hr 23 min 47 sec)
Heartbeat CPU 6 instructions: 670000007 cycles: 167515260 heartbeat IPC: 4 cumulative IPC: 4 (Simulation time: 10 hr 30 min 24 sec)
Heartbeat CPU 2 instructions: 670000005 cycles: 167515274 heartbeat IPC: 4 cumulative IPC: 4 (Simulation time: 10 hr 30 min 24 sec)
Heartbeat CPU 3 instructions: 670000006 cycles: 167515855 heartbeat IPC: 4 cumulative IPC: 4 (Simulation time: 10 hr 30 min 24 sec)
Heartbeat CPU 7 instructions: 670000002 cycles: 167515864 heartbeat IPC: 4 cumulative IPC: 4 (Simulation time: 10 hr 30 min 24 sec)
Heartbeat CPU 6 instructions: 680000007 cycles: 170015260 heartbeat IPC: 4 cumulative IPC: 4 (Simulation time: 10 hr 39 min 17 sec)
Heartbeat CPU 2 instructions: 680000005 cycles: 170015274 heartbeat IPC: 4 cumulative IPC: 4 (Simulation time: 10 hr 39 min 17 sec)
Heartbeat CPU 3 instructions: 680000006 cycles: 170015855 heartbeat IPC: 4 cumulative IPC: 4 (Simulation time: 10 hr 39 min 17 sec)
Heartbeat CPU 7 instructions: 680000002 cycles: 170015864 heartbeat IPC: 4 cumulative IPC: 4 (Simulation time: 10 hr 39 min 17 sec)
Heartbeat CPU 1 instructions: 380000058 cycles: 170756368 heartbeat IPC: 1.996 cumulative IPC: 1.977 (Simulation time: 10 hr 42 min 03 sec)
Heartbeat CPU 5 instructions: 380000054 cycles: 170757170 heartbeat IPC: 1.996 cumulative IPC: 1.982 (Simulation time: 10 hr 42 min 03 sec)
Heartbeat CPU 6 instructions: 690000007 cycles: 172515260 heartbeat IPC: 4 cumulative IPC: 4 (Simulation time: 10 hr 48 min 32 sec)
Heartbeat CPU 2 instructions: 690000005 cycles: 172515274 heartbeat IPC: 4 cumulative IPC: 4 (Simulation time: 10 hr 48 min 32 sec)
Heartbeat CPU 3 instructions: 690000006 cycles: 172515855 heartbeat IPC: 4 cumulative IPC: 4 (Simulation time: 10 hr 48 min 32 sec)
Heartbeat CPU 7 instructions: 690000002 cycles: 172515864 heartbeat IPC: 4 cumulative IPC: 4 (Simulation time: 10 hr 48 min 32 sec)
Heartbeat CPU 0 instructions: 110000010 cycles: 172756975 heartbeat IPC: 0.5858 cumulative IPC: 0.5327 (Simulation time: 10 hr 49 min 25 sec)
Heartbeat CPU 4 instructions: 110000010 cycles: 172756984 heartbeat IPC: 0.5858 cumulative IPC: 0.5327 (Simulation time: 10 hr 49 min 25 sec)
Heartbeat CPU 6 instructions: 700000007 cycles: 175015260 heartbeat IPC: 4 cumulative IPC: 4 (Simulation time: 10 hr 57 min 52 sec)
Heartbeat CPU 2 instructions: 700000005 cycles: 175015274 heartbeat IPC: 4 cumulative IPC: 4 (Simulation time: 10 hr 57 min 52 sec)
Heartbeat CPU 3 instructions: 700000006 cycles: 175015855 heartbeat IPC: 4 cumulative IPC: 4 (Simulation time: 10 hr 57 min 52 sec)
Heartbeat CPU 7 instructions: 700000002 cycles: 175015864 heartbeat IPC: 4 cumulative IPC: 4 (Simulation time: 10 hr 57 min 52 sec)
Heartbeat CPU 1 instructions: 390000061 cycles: 176444087 heartbeat IPC: 1.758 cumulative IPC: 1.966 (Simulation time: 11 hr 03 min 13 sec)
Heartbeat CPU 5 instructions: 390000057 cycles: 176444143 heartbeat IPC: 1.758 cumulative IPC: 1.971 (Simulation time: 11 hr 03 min 13 sec)
Heartbeat CPU 6 instructions: 710000007 cycles: 177515260 heartbeat IPC: 4 cumulative IPC: 4 (Simulation time: 11 hr 07 min 09 sec)
Heartbeat CPU 2 instructions: 710000005 cycles: 177515274 heartbeat IPC: 4 cumulative IPC: 4 (Simulation time: 11 hr 07 min 09 sec)
Heartbeat CPU 3 instructions: 710000006 cycles: 177515855 heartbeat IPC: 4 cumulative IPC: 4 (Simulation time: 11 hr 07 min 09 sec)
Heartbeat CPU 7 instructions: 710000002 cycles: 177515864 heartbeat IPC: 4 cumulative IPC: 4 (Simulation time: 11 hr 07 min 09 sec)
Heartbeat CPU 6 instructions: 720000007 cycles: 180015260 heartbeat IPC: 4 cumulative IPC: 4 (Simulation time: 11 hr 16 min 30 sec)
Heartbeat CPU 2 instructions: 720000005 cycles: 180015274 heartbeat IPC: 4 cumulative IPC: 4 (Simulation time: 11 hr 16 min 30 sec)
Heartbeat CPU 3 instructions: 720000006 cycles: 180015855 heartbeat IPC: 4 cumulative IPC: 4 (Simulation time: 11 hr 16 min 30 sec)
Heartbeat CPU 7 instructions: 720000002 cycles: 180015864 heartbeat IPC: 4 cumulative IPC: 4 (Simulation time: 11 hr 16 min 30 sec)
Heartbeat CPU 1 instructions: 400000063 cycles: 182462585 heartbeat IPC: 1.662 cumulative IPC: 1.951 (Simulation time: 11 hr 26 min 27 sec)
Heartbeat CPU 5 instructions: 400000059 cycles: 182462587 heartbeat IPC: 1.662 cumulative IPC: 1.956 (Simulation time: 11 hr 26 min 27 sec)
Heartbeat CPU 6 instructions: 730000007 cycles: 182515260 heartbeat IPC: 4 cumulative IPC: 4 (Simulation time: 11 hr 26 min 39 sec)
Heartbeat CPU 2 instructions: 730000005 cycles: 182515274 heartbeat IPC: 4 cumulative IPC: 4 (Simulation time: 11 hr 26 min 39 sec)
Heartbeat CPU 3 instructions: 730000006 cycles: 182515855 heartbeat IPC: 4 cumulative IPC: 4 (Simulation time: 11 hr 26 min 39 sec)
Heartbeat CPU 7 instructions: 730000002 cycles: 182515864 heartbeat IPC: 4 cumulative IPC: 4 (Simulation time: 11 hr 26 min 39 sec)
Heartbeat CPU 6 instructions: 740000007 cycles: 185015260 heartbeat IPC: 4 cumulative IPC: 4 (Simulation time: 11 hr 36 min 32 sec)
Heartbeat CPU 2 instructions: 740000005 cycles: 185015274 heartbeat IPC: 4 cumulative IPC: 4 (Simulation time: 11 hr 36 min 32 sec)
Heartbeat CPU 3 instructions: 740000006 cycles: 185015855 heartbeat IPC: 4 cumulative IPC: 4 (Simulation time: 11 hr 36 min 32 sec)
Heartbeat CPU 7 instructions: 740000002 cycles: 185015864 heartbeat IPC: 4 cumulative IPC: 4 (Simulation time: 11 hr 36 min 32 sec)
Heartbeat CPU 6 instructions: 750000007 cycles: 187515260 heartbeat IPC: 4 cumulative IPC: 4 (Simulation time: 11 hr 46 min 40 sec)
Heartbeat CPU 2 instructions: 750000005 cycles: 187515274 heartbeat IPC: 4 cumulative IPC: 4 (Simulation time: 11 hr 46 min 40 sec)
Heartbeat CPU 3 instructions: 750000006 cycles: 187515855 heartbeat IPC: 4 cumulative IPC: 4 (Simulation time: 11 hr 46 min 40 sec)
Heartbeat CPU 7 instructions: 750000002 cycles: 187515864 heartbeat IPC: 4 cumulative IPC: 4 (Simulation time: 11 hr 46 min 40 sec)
Heartbeat CPU 1 instructions: 410000064 cycles: 187969013 heartbeat IPC: 1.816 cumulative IPC: 1.945 (Simulation time: 11 hr 48 min 37 sec)
Heartbeat CPU 5 instructions: 410000060 cycles: 187969017 heartbeat IPC: 1.816 cumulative IPC: 1.95 (Simulation time: 11 hr 48 min 37 sec)
Heartbeat CPU 0 instructions: 120000010 cycles: 189194087 heartbeat IPC: 0.6084 cumulative IPC: 0.5423 (Simulation time: 11 hr 53 min 36 sec)
Heartbeat CPU 4 instructions: 120000010 cycles: 189194132 heartbeat IPC: 0.6084 cumulative IPC: 0.5423 (Simulation time: 11 hr 53 min 36 sec)
Heartbeat CPU 6 instructions: 760000007 cycles: 190015260 heartbeat IPC: 4 cumulative IPC: 4 (Simulation time: 11 hr 57 min 00 sec)
Heartbeat CPU 2 instructions: 760000005 cycles: 190015274 heartbeat IPC: 4 cumulative IPC: 4 (Simulation time: 11 hr 57 min 00 sec)
Heartbeat CPU 3 instructions: 760000006 cycles: 190015855 heartbeat IPC: 4 cumulative IPC: 4 (Simulation time: 11 hr 57 min 00 sec)
Heartbeat CPU 7 instructions: 760000002 cycles: 190015864 heartbeat IPC: 4 cumulative IPC: 4 (Simulation time: 11 hr 57 min 00 sec)
Heartbeat CPU 6 instructions: 770000007 cycles: 192515260 heartbeat IPC: 4 cumulative IPC: 4 (Simulation time: 12 hr 07 min 26 sec)
Heartbeat CPU 2 instructions: 770000005 cycles: 192515274 heartbeat IPC: 4 cumulative IPC: 4 (Simulation time: 12 hr 07 min 26 sec)
Heartbeat CPU 3 instructions: 770000006 cycles: 192515855 heartbeat IPC: 4 cumulative IPC: 4 (Simulation time: 12 hr 07 min 26 sec)
Heartbeat CPU 7 instructions: 770000002 cycles: 192515864 heartbeat IPC: 4 cumulative IPC: 4 (Simulation time: 12 hr 07 min 26 sec)
Heartbeat CPU 6 instructions: 780000007 cycles: 195015260 heartbeat IPC: 4 cumulative IPC: 4 (Simulation time: 12 hr 17 min 28 sec)
Heartbeat CPU 2 instructions: 780000005 cycles: 195015274 heartbeat IPC: 4 cumulative IPC: 4 (Simulation time: 12 hr 17 min 28 sec)
Heartbeat CPU 3 instructions: 780000006 cycles: 195015855 heartbeat IPC: 4 cumulative IPC: 4 (Simulation time: 12 hr 17 min 28 sec)
Heartbeat CPU 7 instructions: 780000002 cycles: 195015864 heartbeat IPC: 4 cumulative IPC: 4 (Simulation time: 12 hr 17 min 28 sec)
Heartbeat CPU 5 instructions: 420000062 cycles: 195725796 heartbeat IPC: 1.289 cumulative IPC: 1.912 (Simulation time: 12 hr 20 min 17 sec)
Heartbeat CPU 1 instructions: 420000066 cycles: 195725797 heartbeat IPC: 1.289 cumulative IPC: 1.908 (Simulation time: 12 hr 20 min 17 sec)
Heartbeat CPU 6 instructions: 790000007 cycles: 197515260 heartbeat IPC: 4 cumulative IPC: 4 (Simulation time: 12 hr 27 min 21 sec)
Heartbeat CPU 2 instructions: 790000005 cycles: 197515274 heartbeat IPC: 4 cumulative IPC: 4 (Simulation time: 12 hr 27 min 21 sec)
Heartbeat CPU 3 instructions: 790000006 cycles: 197515855 heartbeat IPC: 4 cumulative IPC: 4 (Simulation time: 12 hr 27 min 21 sec)
Heartbeat CPU 7 instructions: 790000002 cycles: 197515864 heartbeat IPC: 4 cumulative IPC: 4 (Simulation time: 12 hr 27 min 21 sec)
Heartbeat CPU 6 instructions: 800000007 cycles: 200015260 heartbeat IPC: 4 cumulative IPC: 4 (Simulation time: 12 hr 37 min 01 sec)
Heartbeat CPU 2 instructions: 800000005 cycles: 200015274 heartbeat IPC: 4 cumulative IPC: 4 (Simulation time: 12 hr 37 min 01 sec)
Heartbeat CPU 3 instructions: 800000006 cycles: 200015855 heartbeat IPC: 4 cumulative IPC: 4 (Simulation time: 12 hr 37 min 01 sec)
Heartbeat CPU 7 instructions: 800000002 cycles: 200015864 heartbeat IPC: 4 cumulative IPC: 4 (Simulation time: 12 hr 37 min 01 sec)
Heartbeat CPU 0 instructions: 130000012 cycles: 201470050 heartbeat IPC: 0.8146 cumulative IPC: 0.566 (Simulation time: 12 hr 42 min 40 sec)
Heartbeat CPU 4 instructions: 130000012 cycles: 201470068 heartbeat IPC: 0.8146 cumulative IPC: 0.566 (Simulation time: 12 hr 42 min 40 sec)
Heartbeat CPU 1 instructions: 430000066 cycles: 201543626 heartbeat IPC: 1.719 cumulative IPC: 1.9 (Simulation time: 12 hr 42 min 57 sec)
Heartbeat CPU 5 instructions: 430000062 cycles: 201543698 heartbeat IPC: 1.719 cumulative IPC: 1.904 (Simulation time: 12 hr 42 min 57 sec)
Heartbeat CPU 6 instructions: 810000007 cycles: 202515260 heartbeat IPC: 4 cumulative IPC: 4 (Simulation time: 12 hr 46 min 42 sec)
Heartbeat CPU 2 instructions: 810000005 cycles: 202515274 heartbeat IPC: 4 cumulative IPC: 4 (Simulation time: 12 hr 46 min 42 sec)
Heartbeat CPU 3 instructions: 810000006 cycles: 202515855 heartbeat IPC: 4 cumulative IPC: 4 (Simulation time: 12 hr 46 min 42 sec)
Heartbeat CPU 7 instructions: 810000002 cycles: 202515864 heartbeat IPC: 4 cumulative IPC: 4 (Simulation time: 12 hr 46 min 42 sec)
Heartbeat CPU 6 instructions: 820000007 cycles: 205015260 heartbeat IPC: 4 cumulative IPC: 4 (Simulation time: 12 hr 56 min 34 sec)
Heartbeat CPU 2 instructions: 820000005 cycles: 205015274 heartbeat IPC: 4 cumulative IPC: 4 (Simulation time: 12 hr 56 min 34 sec)
Heartbeat CPU 3 instructions: 820000006 cycles: 205015855 heartbeat IPC: 4 cumulative IPC: 4 (Simulation time: 12 hr 56 min 35 sec)
Heartbeat CPU 7 instructions: 820000002 cycles: 205015864 heartbeat IPC: 4 cumulative IPC: 4 (Simulation time: 12 hr 56 min 35 sec)
Heartbeat CPU 1 instructions: 440000069 cycles: 206586404 heartbeat IPC: 1.983 cumulative IPC: 1.903 (Simulation time: 13 hr 02 min 58 sec)
Heartbeat CPU 5 instructions: 440000065 cycles: 206586469 heartbeat IPC: 1.983 cumulative IPC: 1.907 (Simulation time: 13 hr 02 min 58 sec)
Heartbeat CPU 6 instructions: 830000007 cycles: 207515260 heartbeat IPC: 4 cumulative IPC: 4 (Simulation time: 13 hr 06 min 56 sec)
Heartbeat CPU 2 instructions: 830000005 cycles: 207515274 heartbeat IPC: 4 cumulative IPC: 4 (Simulation time: 13 hr 06 min 56 sec)
Heartbeat CPU 3 instructions: 830000006 cycles: 207515855 heartbeat IPC: 4 cumulative IPC: 4 (Simulation time: 13 hr 06 min 56 sec)
Heartbeat CPU 7 instructions: 830000002 cycles: 207515864 heartbeat IPC: 4 cumulative IPC: 4 (Simulation time: 13 hr 06 min 56 sec)
Heartbeat CPU 0 instructions: 140000015 cycles: 208127661 heartbeat IPC: 1.502 cumulative IPC: 0.6081 (Simulation time: 13 hr 09 min 35 sec)
Heartbeat CPU 4 instructions: 140000015 cycles: 208141331 heartbeat IPC: 1.499 cumulative IPC: 0.608 (Simulation time: 13 hr 09 min 39 sec)
Heartbeat CPU 6 instructions: 840000007 cycles: 210015260 heartbeat IPC: 4 cumulative IPC: 4 (Simulation time: 13 hr 17 min 31 sec)
Heartbeat CPU 2 instructions: 840000005 cycles: 210015274 heartbeat IPC: 4 cumulative IPC: 4 (Simulation time: 13 hr 17 min 31 sec)
Heartbeat CPU 3 instructions: 840000006 cycles: 210015855 heartbeat IPC: 4 cumulative IPC: 4 (Simulation time: 13 hr 17 min 31 sec)
Heartbeat CPU 7 instructions: 840000002 cycles: 210015864 heartbeat IPC: 4 cumulative IPC: 4 (Simulation time: 13 hr 17 min 31 sec)
Heartbeat CPU 1 instructions: 450000070 cycles: 211748409 heartbeat IPC: 1.937 cumulative IPC: 1.904 (Simulation time: 13 hr 24 min 12 sec)
Heartbeat CPU 5 instructions: 450000066 cycles: 211748499 heartbeat IPC: 1.937 cumulative IPC: 1.908 (Simulation time: 13 hr 24 min 12 sec)
Heartbeat CPU 6 instructions: 850000007 cycles: 212515260 heartbeat IPC: 4 cumulative IPC: 4 (Simulation time: 13 hr 27 min 13 sec)
Heartbeat CPU 2 instructions: 850000005 cycles: 212515274 heartbeat IPC: 4 cumulative IPC: 4 (Simulation time: 13 hr 27 min 13 sec)
Heartbeat CPU 3 instructions: 850000006 cycles: 212515855 heartbeat IPC: 4 cumulative IPC: 4 (Simulation time: 13 hr 27 min 13 sec)
Heartbeat CPU 7 instructions: 850000002 cycles: 212515864 heartbeat IPC: 4 cumulative IPC: 4 (Simulation time: 13 hr 27 min 13 sec)
Heartbeat CPU 6 instructions: 860000007 cycles: 215015260 heartbeat IPC: 4 cumulative IPC: 4 (Simulation time: 13 hr 36 min 31 sec)
Heartbeat CPU 2 instructions: 860000005 cycles: 215015274 heartbeat IPC: 4 cumulative IPC: 4 (Simulation time: 13 hr 36 min 31 sec)
Heartbeat CPU 3 instructions: 860000006 cycles: 215015855 heartbeat IPC: 4 cumulative IPC: 4 (Simulation time: 13 hr 36 min 31 sec)
Heartbeat CPU 7 instructions: 860000002 cycles: 215015864 heartbeat IPC: 4 cumulative IPC: 4 (Simulation time: 13 hr 36 min 31 sec)
Heartbeat CPU 1 instructions: 460000072 cycles: 216692464 heartbeat IPC: 2.023 cumulative IPC: 1.908 (Simulation time: 13 hr 42 min 32 sec)
Heartbeat CPU 5 instructions: 460000067 cycles: 216692499 heartbeat IPC: 2.023 cumulative IPC: 1.911 (Simulation time: 13 hr 42 min 32 sec)
Heartbeat CPU 6 instructions: 870000007 cycles: 217515260 heartbeat IPC: 4 cumulative IPC: 4 (Simulation time: 13 hr 45 min 22 sec)
Heartbeat CPU 2 instructions: 870000005 cycles: 217515274 heartbeat IPC: 4 cumulative IPC: 4 (Simulation time: 13 hr 45 min 22 sec)
Heartbeat CPU 3 instructions: 870000006 cycles: 217515855 heartbeat IPC: 4 cumulative IPC: 4 (Simulation time: 13 hr 45 min 22 sec)
Heartbeat CPU 7 instructions: 870000002 cycles: 217515864 heartbeat IPC: 4 cumulative IPC: 4 (Simulation time: 13 hr 45 min 22 sec)
Simulation finished CPU 0 instructions: 100000004 cycles: 159885367 cumulative IPC: 0.6254 (Simulation time: 13 hr 53 min 42 sec)
Heartbeat CPU 0 instructions: 150000016 cycles: 220003235 heartbeat IPC: 0.8421 cumulative IPC: 0.6254 (Simulation time: 13 hr 53 min 42 sec)
Heartbeat CPU 4 instructions: 150000019 cycles: 220003299 heartbeat IPC: 0.843 cumulative IPC: 0.6254 (Simulation time: 13 hr 53 min 42 sec)
Simulation finished CPU 4 instructions: 100000004 cycles: 159886624 cumulative IPC: 0.6254 (Simulation time: 13 hr 53 min 43 sec)
Simulation complete CPU 7 instructions: 639516248 cycles: 159886624 cumulative IPC: 4 (Simulation time: 13 hr 53 min 43 sec)
Simulation complete CPU 6 instructions: 639518186 cycles: 159886624 cumulative IPC: 4 (Simulation time: 13 hr 53 min 43 sec)
Simulation complete CPU 5 instructions: 305675138 cycles: 159886624 cumulative IPC: 1.912 (Simulation time: 13 hr 53 min 43 sec)
Simulation complete CPU 4 instructions: 100000004 cycles: 159886624 cumulative IPC: 0.6254 (Simulation time: 13 hr 53 min 43 sec)
Simulation complete CPU 3 instructions: 639515500 cycles: 159886624 cumulative IPC: 4 (Simulation time: 13 hr 53 min 43 sec)
Simulation complete CPU 2 instructions: 639518126 cycles: 159886624 cumulative IPC: 4 (Simulation time: 13 hr 53 min 43 sec)
Simulation complete CPU 1 instructions: 305087686 cycles: 159886624 cumulative IPC: 1.908 (Simulation time: 13 hr 53 min 43 sec)
Simulation complete CPU 0 instructions: 100000385 cycles: 159886624 cumulative IPC: 0.6254 (Simulation time: 13 hr 53 min 43 sec)

ChampSim completed all CPUs

=== Simulation ===
CPU 0 runs /home/harshraj/COALESCE-Hashed-Perceptron-Cache-Replacement-Policy/simulator/traces/barnes_4t0.champsimtrace
CPU 1 runs /home/harshraj/COALESCE-Hashed-Perceptron-Cache-Replacement-Policy/simulator/traces/barnes_4t1.champsimtrace
CPU 2 runs /home/harshraj/COALESCE-Hashed-Perceptron-Cache-Replacement-Policy/simulator/traces/barnes_4t2.champsimtrace
CPU 3 runs /home/harshraj/COALESCE-Hashed-Perceptron-Cache-Replacement-Policy/simulator/traces/barnes_4t3.champsimtrace
CPU 4 runs /home/harshraj/COALESCE-Hashed-Perceptron-Cache-Replacement-Policy/simulator/traces/barnes_4t0.champsimtrace
CPU 5 runs /home/harshraj/COALESCE-Hashed-Perceptron-Cache-Replacement-Policy/simulator/traces/barnes_4t1.champsimtrace
CPU 6 runs /home/harshraj/COALESCE-Hashed-Perceptron-Cache-Replacement-Policy/simulator/traces/barnes_4t2.champsimtrace
CPU 7 runs /home/harshraj/COALESCE-Hashed-Perceptron-Cache-Replacement-Policy/simulator/traces/barnes_4t3.champsimtrace

Total Simulation Statistics (not including warmup)

CPU 7 cumulative IPC: 4 instructions: 639516248 cycles: 159886624
CPU 7 Branch Prediction Accuracy: -% MPKI: 0 Average ROB Occupancy at Mispredict: -
Branch type MPKI
BRANCH_DIRECT_JUMP: 0
BRANCH_INDIRECT: 0
BRANCH_CONDITIONAL: 0
BRANCH_DIRECT_CALL: 0
BRANCH_INDIRECT_CALL: 0
BRANCH_RETURN: 0


CPU 6 cumulative IPC: 4 instructions: 639518186 cycles: 159886624
CPU 6 Branch Prediction Accuracy: -% MPKI: 0 Average ROB Occupancy at Mispredict: -
Branch type MPKI
BRANCH_DIRECT_JUMP: 0
BRANCH_INDIRECT: 0
BRANCH_CONDITIONAL: 0
BRANCH_DIRECT_CALL: 0
BRANCH_INDIRECT_CALL: 0
BRANCH_RETURN: 0


CPU 5 cumulative IPC: 1.912 instructions: 305675138 cycles: 159886624
CPU 5 Branch Prediction Accuracy: -% MPKI: 0 Average ROB Occupancy at Mispredict: -
Branch type MPKI
BRANCH_DIRECT_JUMP: 0
BRANCH_INDIRECT: 0
BRANCH_CONDITIONAL: 0
BRANCH_DIRECT_CALL: 0
BRANCH_INDIRECT_CALL: 0
BRANCH_RETURN: 0


CPU 4 cumulative IPC: 0.6254 instructions: 100000004 cycles: 159886624
CPU 4 Branch Prediction Accuracy: -% MPKI: 0 Average ROB Occupancy at Mispredict: -
Branch type MPKI
BRANCH_DIRECT_JUMP: 0
BRANCH_INDIRECT: 0
BRANCH_CONDITIONAL: 0
BRANCH_DIRECT_CALL: 0
BRANCH_INDIRECT_CALL: 0
BRANCH_RETURN: 0


CPU 3 cumulative IPC: 4 instructions: 639515500 cycles: 159886624
CPU 3 Branch Prediction Accuracy: -% MPKI: 0 Average ROB Occupancy at Mispredict: -
Branch type MPKI
BRANCH_DIRECT_JUMP: 0
BRANCH_INDIRECT: 0
BRANCH_CONDITIONAL: 0
BRANCH_DIRECT_CALL: 0
BRANCH_INDIRECT_CALL: 0
BRANCH_RETURN: 0


CPU 2 cumulative IPC: 4 instructions: 639518126 cycles: 159886624
CPU 2 Branch Prediction Accuracy: -% MPKI: 0 Average ROB Occupancy at Mispredict: -
Branch type MPKI
BRANCH_DIRECT_JUMP: 0
BRANCH_INDIRECT: 0
BRANCH_CONDITIONAL: 0
BRANCH_DIRECT_CALL: 0
BRANCH_INDIRECT_CALL: 0
BRANCH_RETURN: 0


CPU 1 cumulative IPC: 1.908 instructions: 305087686 cycles: 159886624
CPU 1 Branch Prediction Accuracy: -% MPKI: 0 Average ROB Occupancy at Mispredict: -
Branch type MPKI
BRANCH_DIRECT_JUMP: 0
BRANCH_INDIRECT: 0
BRANCH_CONDITIONAL: 0
BRANCH_DIRECT_CALL: 0
BRANCH_INDIRECT_CALL: 0
BRANCH_RETURN: 0


CPU 0 cumulative IPC: 0.6254 instructions: 100000385 cycles: 159886624
CPU 0 Branch Prediction Accuracy: -% MPKI: 0 Average ROB Occupancy at Mispredict: -
Branch type MPKI
BRANCH_DIRECT_JUMP: 0
BRANCH_INDIRECT: 0
BRANCH_CONDITIONAL: 0
BRANCH_DIRECT_CALL: 0
BRANCH_INDIRECT_CALL: 0
BRANCH_RETURN: 0

cpu7->cpu7_STLB TOTAL        ACCESS:         18 HIT:          8 MISS:         10 MSHR_MERGE:          0
cpu7->cpu7_STLB LOAD         ACCESS:         18 HIT:          8 MISS:         10 MSHR_MERGE:          0
cpu7->cpu7_STLB RFO          ACCESS:          0 HIT:          0 MISS:          0 MSHR_MERGE:          0
cpu7->cpu7_STLB PREFETCH     ACCESS:          0 HIT:          0 MISS:          0 MSHR_MERGE:          0
cpu7->cpu7_STLB WRITE        ACCESS:          0 HIT:          0 MISS:          0 MSHR_MERGE:          0
cpu7->cpu7_STLB TRANSLATION  ACCESS:          0 HIT:          0 MISS:          0 MSHR_MERGE:          0
cpu7->cpu7_STLB PREFETCH REQUESTED:          0 ISSUED:          0 USEFUL:          0 USELESS:          0
cpu7->cpu7_STLB AVERAGE MISS LATENCY: 688.7 cycles
cpu7_STLB COHERENCE INVALIDATIONS:          0
cpu7_STLB COHERENCE WRITE-HIT OTHER-SHARER EVENTS:          0
cpu7->cpu7_L2C TOTAL        ACCESS:         58 HIT:          4 MISS:         54 MSHR_MERGE:          0
cpu7->cpu7_L2C LOAD         ACCESS:         38 HIT:          4 MISS:         34 MSHR_MERGE:          0
cpu7->cpu7_L2C RFO          ACCESS:          0 HIT:          0 MISS:          0 MSHR_MERGE:          0
cpu7->cpu7_L2C PREFETCH     ACCESS:          0 HIT:          0 MISS:          0 MSHR_MERGE:          0
cpu7->cpu7_L2C WRITE        ACCESS:          0 HIT:          0 MISS:          0 MSHR_MERGE:          0
cpu7->cpu7_L2C TRANSLATION  ACCESS:         20 HIT:          0 MISS:         20 MSHR_MERGE:          0
cpu7->cpu7_L2C PREFETCH REQUESTED:          0 ISSUED:          0 USEFUL:          0 USELESS:          0
cpu7->cpu7_L2C AVERAGE MISS LATENCY: 228.1 cycles
cpu7_L2C COHERENCE INVALIDATIONS:          0
cpu7_L2C COHERENCE WRITE-HIT OTHER-SHARER EVENTS:          0
cpu7->cpu7_L1I TOTAL        ACCESS:   91798408 HIT:   91798356 MISS:         52 MSHR_MERGE:         14
cpu7->cpu7_L1I LOAD         ACCESS:   91798408 HIT:   91798356 MISS:         52 MSHR_MERGE:         14
cpu7->cpu7_L1I RFO          ACCESS:          0 HIT:          0 MISS:          0 MSHR_MERGE:          0
cpu7->cpu7_L1I PREFETCH     ACCESS:          0 HIT:          0 MISS:          0 MSHR_MERGE:          0
cpu7->cpu7_L1I WRITE        ACCESS:          0 HIT:          0 MISS:          0 MSHR_MERGE:          0
cpu7->cpu7_L1I TRANSLATION  ACCESS:          0 HIT:          0 MISS:          0 MSHR_MERGE:          0
cpu7->cpu7_L1I PREFETCH REQUESTED:          0 ISSUED:          0 USEFUL:          0 USELESS:          0
cpu7->cpu7_L1I AVERAGE MISS LATENCY: 215.9 cycles
cpu7_L1I COHERENCE INVALIDATIONS:          0
cpu7_L1I COHERENCE WRITE-HIT OTHER-SHARER EVENTS:          0
cpu7->cpu7_L1D TOTAL        ACCESS:         20 HIT:          0 MISS:         20 MSHR_MERGE:          0
cpu7->cpu7_L1D LOAD         ACCESS:          0 HIT:          0 MISS:          0 MSHR_MERGE:          0
cpu7->cpu7_L1D RFO          ACCESS:          0 HIT:          0 MISS:          0 MSHR_MERGE:          0
cpu7->cpu7_L1D PREFETCH     ACCESS:          0 HIT:          0 MISS:          0 MSHR_MERGE:          0
cpu7->cpu7_L1D WRITE        ACCESS:          0 HIT:          0 MISS:          0 MSHR_MERGE:          0
cpu7->cpu7_L1D TRANSLATION  ACCESS:         20 HIT:          0 MISS:         20 MSHR_MERGE:          0
cpu7->cpu7_L1D PREFETCH REQUESTED:          0 ISSUED:          0 USEFUL:          0 USELESS:          0
cpu7->cpu7_L1D AVERAGE MISS LATENCY: 228.3 cycles
cpu7_L1D COHERENCE INVALIDATIONS:          0
cpu7_L1D COHERENCE WRITE-HIT OTHER-SHARER EVENTS:          0
cpu7->cpu7_ITLB TOTAL        ACCESS:   73999174 HIT:   73999141 MISS:         33 MSHR_MERGE:         15
cpu7->cpu7_ITLB LOAD         ACCESS:   73999174 HIT:   73999141 MISS:         33 MSHR_MERGE:         15
cpu7->cpu7_ITLB RFO          ACCESS:          0 HIT:          0 MISS:          0 MSHR_MERGE:          0
cpu7->cpu7_ITLB PREFETCH     ACCESS:          0 HIT:          0 MISS:          0 MSHR_MERGE:          0
cpu7->cpu7_ITLB WRITE        ACCESS:          0 HIT:          0 MISS:          0 MSHR_MERGE:          0
cpu7->cpu7_ITLB TRANSLATION  ACCESS:          0 HIT:          0 MISS:          0 MSHR_MERGE:          0
cpu7->cpu7_ITLB PREFETCH REQUESTED:          0 ISSUED:          0 USEFUL:          0 USELESS:          0
cpu7->cpu7_ITLB AVERAGE MISS LATENCY: 387.2 cycles
cpu7_ITLB COHERENCE INVALIDATIONS:          0
cpu7_ITLB COHERENCE WRITE-HIT OTHER-SHARER EVENTS:          0
cpu7_DTLB COHERENCE INVALIDATIONS:          0
cpu7_DTLB COHERENCE WRITE-HIT OTHER-SHARER EVENTS:          0
cpu6->cpu6_STLB TOTAL        ACCESS:         17 HIT:          7 MISS:         10 MSHR_MERGE:          0
cpu6->cpu6_STLB LOAD         ACCESS:         17 HIT:          7 MISS:         10 MSHR_MERGE:          0
cpu6->cpu6_STLB RFO          ACCESS:          0 HIT:          0 MISS:          0 MSHR_MERGE:          0
cpu6->cpu6_STLB PREFETCH     ACCESS:          0 HIT:          0 MISS:          0 MSHR_MERGE:          0
cpu6->cpu6_STLB WRITE        ACCESS:          0 HIT:          0 MISS:          0 MSHR_MERGE:          0
cpu6->cpu6_STLB TRANSLATION  ACCESS:          0 HIT:          0 MISS:          0 MSHR_MERGE:          0
cpu6->cpu6_STLB PREFETCH REQUESTED:          0 ISSUED:          0 USEFUL:          0 USELESS:          0
cpu6->cpu6_STLB AVERAGE MISS LATENCY: 643.1 cycles
cpu6_STLB COHERENCE INVALIDATIONS:          0
cpu6_STLB COHERENCE WRITE-HIT OTHER-SHARER EVENTS:          0
cpu6->cpu6_L2C TOTAL        ACCESS:         58 HIT:          4 MISS:         54 MSHR_MERGE:          0
cpu6->cpu6_L2C LOAD         ACCESS:         38 HIT:          4 MISS:         34 MSHR_MERGE:          0
cpu6->cpu6_L2C RFO          ACCESS:          0 HIT:          0 MISS:          0 MSHR_MERGE:          0
cpu6->cpu6_L2C PREFETCH     ACCESS:          0 HIT:          0 MISS:          0 MSHR_MERGE:          0
cpu6->cpu6_L2C WRITE        ACCESS:          0 HIT:          0 MISS:          0 MSHR_MERGE:          0
cpu6->cpu6_L2C TRANSLATION  ACCESS:         20 HIT:          0 MISS:         20 MSHR_MERGE:          0
cpu6->cpu6_L2C PREFETCH REQUESTED:          0 ISSUED:          0 USEFUL:          0 USELESS:          0
cpu6->cpu6_L2C AVERAGE MISS LATENCY: 222.1 cycles
cpu6_L2C COHERENCE INVALIDATIONS:          0
cpu6_L2C COHERENCE WRITE-HIT OTHER-SHARER EVENTS:          0
cpu6->cpu6_L1I TOTAL        ACCESS:   93223926 HIT:   93223872 MISS:         54 MSHR_MERGE:         16
cpu6->cpu6_L1I LOAD         ACCESS:   93223926 HIT:   93223872 MISS:         54 MSHR_MERGE:         16
cpu6->cpu6_L1I RFO          ACCESS:          0 HIT:          0 MISS:          0 MSHR_MERGE:          0
cpu6->cpu6_L1I PREFETCH     ACCESS:          0 HIT:          0 MISS:          0 MSHR_MERGE:          0
cpu6->cpu6_L1I WRITE        ACCESS:          0 HIT:          0 MISS:          0 MSHR_MERGE:          0
cpu6->cpu6_L1I TRANSLATION  ACCESS:          0 HIT:          0 MISS:          0 MSHR_MERGE:          0
cpu6->cpu6_L1I PREFETCH REQUESTED:          0 ISSUED:          0 USEFUL:          0 USELESS:          0
cpu6->cpu6_L1I AVERAGE MISS LATENCY: 214.2 cycles
cpu6_L1I COHERENCE INVALIDATIONS:          0
cpu6_L1I COHERENCE WRITE-HIT OTHER-SHARER EVENTS:          0
cpu6->cpu6_L1D TOTAL        ACCESS:         20 HIT:          0 MISS:         20 MSHR_MERGE:          0
cpu6->cpu6_L1D LOAD         ACCESS:          0 HIT:          0 MISS:          0 MSHR_MERGE:          0
cpu6->cpu6_L1D RFO          ACCESS:          0 HIT:          0 MISS:          0 MSHR_MERGE:          0
cpu6->cpu6_L1D PREFETCH     ACCESS:          0 HIT:          0 MISS:          0 MSHR_MERGE:          0
cpu6->cpu6_L1D WRITE        ACCESS:          0 HIT:          0 MISS:          0 MSHR_MERGE:          0
cpu6->cpu6_L1D TRANSLATION  ACCESS:         20 HIT:          0 MISS:         20 MSHR_MERGE:          0
cpu6->cpu6_L1D PREFETCH REQUESTED:          0 ISSUED:          0 USEFUL:          0 USELESS:          0
cpu6->cpu6_L1D AVERAGE MISS LATENCY: 215.6 cycles
cpu6_L1D COHERENCE INVALIDATIONS:          0
cpu6_L1D COHERENCE WRITE-HIT OTHER-SHARER EVENTS:          0
cpu6->cpu6_ITLB TOTAL        ACCESS:   74378757 HIT:   74378729 MISS:         28 MSHR_MERGE:         11
cpu6->cpu6_ITLB LOAD         ACCESS:   74378757 HIT:   74378729 MISS:         28 MSHR_MERGE:         11
cpu6->cpu6_ITLB RFO          ACCESS:          0 HIT:          0 MISS:          0 MSHR_MERGE:          0
cpu6->cpu6_ITLB PREFETCH     ACCESS:          0 HIT:          0 MISS:          0 MSHR_MERGE:          0
[...]
cpu2->cpu2_L2C RFO          ACCESS:          0 HIT:          0 MISS:          0 MSHR_MERGE:          0
cpu2->cpu2_L2C PREFETCH     ACCESS:          0 HIT:          0 MISS:          0 MSHR_MERGE:          0
cpu2->cpu2_L2C WRITE        ACCESS:          0 HIT:          0 MISS:          0 MSHR_MERGE:          0
cpu2->cpu2_L2C TRANSLATION  ACCESS:         20 HIT:          0 MISS:         20 MSHR_MERGE:          0
cpu2->cpu2_L2C PREFETCH REQUESTED:          0 ISSUED:          0 USEFUL:          0 USELESS:          0
cpu2->cpu2_L2C AVERAGE MISS LATENCY: 136.6 cycles
cpu2_L2C COHERENCE INVALIDATIONS:          0
cpu2_L2C COHERENCE WRITE-HIT OTHER-SHARER EVENTS:          0
cpu2->cpu2_L1I TOTAL        ACCESS:   92380320 HIT:   92380270 MISS:         50 MSHR_MERGE:         12
cpu2->cpu2_L1I LOAD         ACCESS:   92380320 HIT:   92380270 MISS:         50 MSHR_MERGE:         12
cpu2->cpu2_L1I RFO          ACCESS:          0 HIT:          0 MISS:          0 MSHR_MERGE:          0
cpu2->cpu2_L1I PREFETCH     ACCESS:          0 HIT:          0 MISS:          0 MSHR_MERGE:          0
cpu2->cpu2_L1I WRITE        ACCESS:          0 HIT:          0 MISS:          0 MSHR_MERGE:          0
cpu2->cpu2_L1I TRANSLATION  ACCESS:          0 HIT:          0 MISS:          0 MSHR_MERGE:          0
cpu2->cpu2_L1I PREFETCH REQUESTED:          0 ISSUED:          0 USEFUL:          0 USELESS:          0
cpu2->cpu2_L1I AVERAGE MISS LATENCY: 82.45 cycles
cpu2_L1I COHERENCE INVALIDATIONS:          0
cpu2_L1I COHERENCE WRITE-HIT OTHER-SHARER EVENTS:          0
cpu2->cpu2_L1D TOTAL        ACCESS:         20 HIT:          0 MISS:         20 MSHR_MERGE:          0
cpu2->cpu2_L1D LOAD         ACCESS:          0 HIT:          0 MISS:          0 MSHR_MERGE:          0
cpu2->cpu2_L1D RFO          ACCESS:          0 HIT:          0 MISS:          0 MSHR_MERGE:          0
cpu2->cpu2_L1D PREFETCH     ACCESS:          0 HIT:          0 MISS:          0 MSHR_MERGE:          0
cpu2->cpu2_L1D WRITE        ACCESS:          0 HIT:          0 MISS:          0 MSHR_MERGE:          0
cpu2->cpu2_L1D TRANSLATION  ACCESS:         20 HIT:          0 MISS:         20 MSHR_MERGE:          0
cpu2->cpu2_L1D PREFETCH REQUESTED:          0 ISSUED:          0 USEFUL:          0 USELESS:          0
cpu2->cpu2_L1D AVERAGE MISS LATENCY: 235.3 cycles
cpu2_L1D COHERENCE INVALIDATIONS:          0
cpu2_L1D COHERENCE WRITE-HIT OTHER-SHARER EVENTS:          0
cpu2->cpu2_ITLB TOTAL        ACCESS:   73799312 HIT:   73799286 MISS:         26 MSHR_MERGE:          9
cpu2->cpu2_ITLB LOAD         ACCESS:   73799312 HIT:   73799286 MISS:         26 MSHR_MERGE:          9
cpu2->cpu2_ITLB RFO          ACCESS:          0 HIT:          0 MISS:          0 MSHR_MERGE:          0
cpu2->cpu2_ITLB PREFETCH     ACCESS:          0 HIT:          0 MISS:          0 MSHR_MERGE:          0
cpu2->cpu2_ITLB WRITE        ACCESS:          0 HIT:          0 MISS:          0 MSHR_MERGE:          0
cpu2->cpu2_ITLB TRANSLATION  ACCESS:          0 HIT:          0 MISS:          0 MSHR_MERGE:          0
cpu2->cpu2_ITLB PREFETCH REQUESTED:          0 ISSUED:          0 USEFUL:          0 USELESS:          0
cpu2->cpu2_ITLB AVERAGE MISS LATENCY: 406.1 cycles
cpu2_ITLB COHERENCE INVALIDATIONS:          0
cpu2_ITLB COHERENCE WRITE-HIT OTHER-SHARER EVENTS:          0
cpu2_DTLB COHERENCE INVALIDATIONS:          0
cpu2_DTLB COHERENCE WRITE-HIT OTHER-SHARER EVENTS:          0
cpu1->cpu1_STLB TOTAL        ACCESS:    1139415 HIT:    1139247 MISS:        168 MSHR_MERGE:          0
cpu1->cpu1_STLB LOAD         ACCESS:    1139415 HIT:    1139247 MISS:        168 MSHR_MERGE:          0
cpu1->cpu1_STLB RFO          ACCESS:          0 HIT:          0 MISS:          0 MSHR_MERGE:          0
cpu1->cpu1_STLB PREFETCH     ACCESS:          0 HIT:          0 MISS:          0 MSHR_MERGE:          0
cpu1->cpu1_STLB WRITE        ACCESS:          0 HIT:          0 MISS:          0 MSHR_MERGE:          0
cpu1->cpu1_STLB TRANSLATION  ACCESS:          0 HIT:          0 MISS:          0 MSHR_MERGE:          0
cpu1->cpu1_STLB PREFETCH REQUESTED:          0 ISSUED:          0 USEFUL:          0 USELESS:          0
cpu1->cpu1_STLB AVERAGE MISS LATENCY: 603.3 cycles
cpu1_STLB COHERENCE INVALIDATIONS:          0
cpu1_STLB COHERENCE WRITE-HIT OTHER-SHARER EVENTS:          0
cpu1->cpu1_L2C TOTAL        ACCESS:    3398767 HIT:    3106695 MISS:     292072 MSHR_MERGE:          0
cpu1->cpu1_L2C LOAD         ACCESS:    3398570 HIT:    3106695 MISS:     291875 MSHR_MERGE:          0
cpu1->cpu1_L2C RFO          ACCESS:          0 HIT:          0 MISS:          0 MSHR_MERGE:          0
cpu1->cpu1_L2C PREFETCH     ACCESS:          0 HIT:          0 MISS:          0 MSHR_MERGE:          0
cpu1->cpu1_L2C WRITE        ACCESS:          0 HIT:          0 MISS:          0 MSHR_MERGE:          0
cpu1->cpu1_L2C TRANSLATION  ACCESS:        197 HIT:          0 MISS:        197 MSHR_MERGE:          0
cpu1->cpu1_L2C PREFETCH REQUESTED:          0 ISSUED:          0 USEFUL:          0 USELESS:          0
cpu1->cpu1_L2C AVERAGE MISS LATENCY: 110.2 cycles
cpu1_L2C COHERENCE INVALIDATIONS:          0
cpu1_L2C COHERENCE WRITE-HIT OTHER-SHARER EVENTS:          0
cpu1->cpu1_L1I TOTAL        ACCESS:   64083589 HIT:   60630299 MISS:    3453290 MSHR_MERGE:      54720
cpu1->cpu1_L1I LOAD         ACCESS:   64083589 HIT:   60630299 MISS:    3453290 MSHR_MERGE:      54720
cpu1->cpu1_L1I RFO          ACCESS:          0 HIT:          0 MISS:          0 MSHR_MERGE:          0
cpu1->cpu1_L1I PREFETCH     ACCESS:          0 HIT:          0 MISS:          0 MSHR_MERGE:          0
cpu1->cpu1_L1I WRITE        ACCESS:          0 HIT:          0 MISS:          0 MSHR_MERGE:          0
cpu1->cpu1_L1I TRANSLATION  ACCESS:          0 HIT:          0 MISS:          0 MSHR_MERGE:          0
cpu1->cpu1_L1I PREFETCH REQUESTED:          0 ISSUED:          0 USEFUL:          0 USELESS:          0
cpu1->cpu1_L1I AVERAGE MISS LATENCY: 16.54 cycles
cpu1_L1I COHERENCE INVALIDATIONS:          0
cpu1_L1I COHERENCE WRITE-HIT OTHER-SHARER EVENTS:          0
cpu1->cpu1_L1D TOTAL        ACCESS:        339 HIT:        142 MISS:        197 MSHR_MERGE:          0
cpu1->cpu1_L1D LOAD         ACCESS:          0 HIT:          0 MISS:          0 MSHR_MERGE:          0
cpu1->cpu1_L1D RFO          ACCESS:          0 HIT:          0 MISS:          0 MSHR_MERGE:          0
cpu1->cpu1_L1D PREFETCH     ACCESS:          0 HIT:          0 MISS:          0 MSHR_MERGE:          0
cpu1->cpu1_L1D WRITE        ACCESS:          0 HIT:          0 MISS:          0 MSHR_MERGE:          0
cpu1->cpu1_L1D TRANSLATION  ACCESS:        339 HIT:        142 MISS:        197 MSHR_MERGE:          0
cpu1->cpu1_L1D PREFETCH REQUESTED:          0 ISSUED:          0 USEFUL:          0 USELESS:          0
cpu1->cpu1_L1D AVERAGE MISS LATENCY: 203.4 cycles
cpu1_L1D COHERENCE INVALIDATIONS:          0
cpu1_L1D COHERENCE WRITE-HIT OTHER-SHARER EVENTS:          0
cpu1->cpu1_ITLB TOTAL        ACCESS:   61591922 HIT:   60391284 MISS:    1200638 MSHR_MERGE:      61223
cpu1->cpu1_ITLB LOAD         ACCESS:   61591922 HIT:   60391284 MISS:    1200638 MSHR_MERGE:      61223
cpu1->cpu1_ITLB RFO          ACCESS:          0 HIT:          0 MISS:          0 MSHR_MERGE:          0
cpu1->cpu1_ITLB PREFETCH     ACCESS:          0 HIT:          0 MISS:          0 MSHR_MERGE:          0
cpu1->cpu1_ITLB WRITE        ACCESS:          0 HIT:          0 MISS:          0 MSHR_MERGE:          0
cpu1->cpu1_ITLB TRANSLATION  ACCESS:          0 HIT:          0 MISS:          0 MSHR_MERGE:          0
cpu1->cpu1_ITLB PREFETCH REQUESTED:          0 ISSUED:          0 USEFUL:          0 USELESS:          0
cpu1->cpu1_ITLB AVERAGE MISS LATENCY: 4.089 cycles
cpu1_ITLB COHERENCE INVALIDATIONS:          0
cpu1_ITLB COHERENCE WRITE-HIT OTHER-SHARER EVENTS:          0
cpu1_DTLB COHERENCE INVALIDATIONS:          0
cpu1_DTLB COHERENCE WRITE-HIT OTHER-SHARER EVENTS:          0
cpu0->cpu0_STLB TOTAL        ACCESS:    3020186 HIT:    3007253 MISS:      12933 MSHR_MERGE:          0
cpu0->cpu0_STLB LOAD         ACCESS:    3020186 HIT:    3007253 MISS:      12933 MSHR_MERGE:          0
cpu0->cpu0_STLB RFO          ACCESS:          0 HIT:          0 MISS:          0 MSHR_MERGE:          0
cpu0->cpu0_STLB PREFETCH     ACCESS:          0 HIT:          0 MISS:          0 MSHR_MERGE:          0
cpu0->cpu0_STLB WRITE        ACCESS:          0 HIT:          0 MISS:          0 MSHR_MERGE:          0
cpu0->cpu0_STLB TRANSLATION  ACCESS:          0 HIT:          0 MISS:          0 MSHR_MERGE:          0
cpu0->cpu0_STLB PREFETCH REQUESTED:          0 ISSUED:          0 USEFUL:          0 USELESS:          0
cpu0->cpu0_STLB AVERAGE MISS LATENCY: 275.7 cycles
cpu0_STLB COHERENCE INVALIDATIONS:          0
cpu0_STLB COHERENCE WRITE-HIT OTHER-SHARER EVENTS:          0
cpu0->cpu0_L2C TOTAL        ACCESS:    4709963 HIT:    4301230 MISS:     408733 MSHR_MERGE:          0
cpu0->cpu0_L2C LOAD         ACCESS:    3759129 HIT:    3416232 MISS:     342897 MSHR_MERGE:          0
cpu0->cpu0_L2C RFO          ACCESS:     343560 HIT:     292108 MISS:      51452 MSHR_MERGE:          0
cpu0->cpu0_L2C PREFETCH     ACCESS:          0 HIT:          0 MISS:          0 MSHR_MERGE:          0
cpu0->cpu0_L2C WRITE        ACCESS:     579095 HIT:     578769 MISS:        326 MSHR_MERGE:          0
cpu0->cpu0_L2C TRANSLATION  ACCESS:      28179 HIT:      14121 MISS:      14058 MSHR_MERGE:          0
cpu0->cpu0_L2C PREFETCH REQUESTED:          0 ISSUED:          0 USEFUL:          0 USELESS:          0
cpu0->cpu0_L2C AVERAGE MISS LATENCY: 135.3 cycles
cpu0_L2C COHERENCE INVALIDATIONS:          0
cpu0_L2C COHERENCE WRITE-HIT OTHER-SHARER EVENTS:          0
cpu0->cpu0_L1I TOTAL        ACCESS:   25965846 HIT:   25965829 MISS:         17 MSHR_MERGE:          4
cpu0->cpu0_L1I LOAD         ACCESS:   25965846 HIT:   25965829 MISS:         17 MSHR_MERGE:          4
cpu0->cpu0_L1I RFO          ACCESS:          0 HIT:          0 MISS:          0 MSHR_MERGE:          0
cpu0->cpu0_L1I PREFETCH     ACCESS:          0 HIT:          0 MISS:          0 MSHR_MERGE:          0
cpu0->cpu0_L1I WRITE        ACCESS:          0 HIT:          0 MISS:          0 MSHR_MERGE:          0
cpu0->cpu0_L1I TRANSLATION  ACCESS:          0 HIT:          0 MISS:          0 MSHR_MERGE:          0
cpu0->cpu0_L1I PREFETCH REQUESTED:          0 ISSUED:          0 USEFUL:          0 USELESS:          0
cpu0->cpu0_L1I AVERAGE MISS LATENCY: 253.8 cycles
cpu0_L1I COHERENCE INVALIDATIONS:          0
cpu0_L1I COHERENCE WRITE-HIT OTHER-SHARER EVENTS:          0
cpu0->cpu0_L1D TOTAL        ACCESS:   63855382 HIT:   59645926 MISS:    4209456 MSHR_MERGE:      78309
cpu0->cpu0_L1D LOAD         ACCESS:   16891388 HIT:   13122766 MISS:    3768622 MSHR_MERGE:       9460
cpu0->cpu0_L1D RFO          ACCESS:          0 HIT:          0 MISS:          0 MSHR_MERGE:          0
cpu0->cpu0_L1D PREFETCH     ACCESS:          0 HIT:          0 MISS:          0 MSHR_MERGE:          0
cpu0->cpu0_L1D WRITE        ACCESS:   46932658 HIT:   46520011 MISS:     412647 MSHR_MERGE:      68841
cpu0->cpu0_L1D TRANSLATION  ACCESS:      31336 HIT:       3149 MISS:      28187 MSHR_MERGE:          8
cpu0->cpu0_L1D PREFETCH REQUESTED:          0 ISSUED:          0 USEFUL:          0 USELESS:          0
cpu0->cpu0_L1D AVERAGE MISS LATENCY: 20.49 cycles
cpu0_L1D COHERENCE INVALIDATIONS:          0
cpu0_L1D COHERENCE WRITE-HIT OTHER-SHARER EVENTS:          0
cpu0->cpu0_ITLB TOTAL        ACCESS:   23725412 HIT:   23725412 MISS:          0 MSHR_MERGE:          0
cpu0->cpu0_ITLB LOAD         ACCESS:   23725412 HIT:   23725412 MISS:          0 MSHR_MERGE:          0
cpu0->cpu0_ITLB RFO          ACCESS:          0 HIT:          0 MISS:          0 MSHR_MERGE:          0
cpu0->cpu0_ITLB PREFETCH     ACCESS:          0 HIT:          0 MISS:          0 MSHR_MERGE:          0
cpu0->cpu0_ITLB WRITE        ACCESS:          0 HIT:          0 MISS:          0 MSHR_MERGE:          0
cpu0->cpu0_ITLB TRANSLATION  ACCESS:          0 HIT:          0 MISS:          0 MSHR_MERGE:          0
cpu0->cpu0_ITLB PREFETCH REQUESTED:          0 ISSUED:          0 USEFUL:          0 USELESS:          0
cpu0->cpu0_ITLB AVERAGE MISS LATENCY: - cycles
cpu0_ITLB COHERENCE INVALIDATIONS:          0
cpu0_ITLB COHERENCE WRITE-HIT OTHER-SHARER EVENTS:          0
cpu0->cpu0_DTLB TOTAL        ACCESS:   62018758 HIT:   58827289 MISS:    3191469 MSHR_MERGE:     171283
cpu0->cpu0_DTLB LOAD         ACCESS:   62018758 HIT:   58827289 MISS:    3191469 MSHR_MERGE:     171283
cpu0->cpu0_DTLB RFO          ACCESS:          0 HIT:          0 MISS:          0 MSHR_MERGE:          0
cpu0->cpu0_DTLB PREFETCH     ACCESS:          0 HIT:          0 MISS:          0 MSHR_MERGE:          0
cpu0->cpu0_DTLB WRITE        ACCESS:          0 HIT:          0 MISS:          0 MSHR_MERGE:          0
cpu0->cpu0_DTLB TRANSLATION  ACCESS:          0 HIT:          0 MISS:          0 MSHR_MERGE:          0
cpu0->cpu0_DTLB PREFETCH REQUESTED:          0 ISSUED:          0 USEFUL:          0 USELESS:          0
cpu0->cpu0_DTLB AVERAGE MISS LATENCY: 5.185 cycles
cpu0_DTLB COHERENCE INVALIDATIONS:          0
cpu0_DTLB COHERENCE WRITE-HIT OTHER-SHARER EVENTS:          0
cpu0->LLC TOTAL        ACCESS:     512138 HIT:     223896 MISS:     288242 MSHR_MERGE:      36989
cpu0->LLC LOAD         ACCESS:     342897 HIT:     142801 MISS:     200096 MSHR_MERGE:      30909
cpu0->LLC RFO          ACCESS:      51452 HIT:      23421 MISS:      28031 MSHR_MERGE:       6080
cpu0->LLC PREFETCH     ACCESS:          0 HIT:          0 MISS:          0 MSHR_MERGE:          0
cpu0->LLC WRITE        ACCESS:     103731 HIT:      57617 MISS:      46114 MSHR_MERGE:          0
cpu0->LLC TRANSLATION  ACCESS:      14058 HIT:         57 MISS:      14001 MSHR_MERGE:          0
cpu0->LLC PREFETCH REQUESTED:          0 ISSUED:          0 USEFUL:          0 USELESS:          0
cpu0->LLC AVERAGE MISS LATENCY: 712.3 cycles
cpu1->LLC TOTAL        ACCESS:     292072 HIT:     137706 MISS:     154366 MSHR_MERGE:      24034
cpu1->LLC LOAD         ACCESS:     291875 HIT:     137706 MISS:     154169 MSHR_MERGE:      24034
cpu1->LLC RFO          ACCESS:          0 HIT:          0 MISS:          0 MSHR_MERGE:          0
cpu1->LLC PREFETCH     ACCESS:          0 HIT:          0 MISS:          0 MSHR_MERGE:          0
cpu1->LLC WRITE        ACCESS:          0 HIT:          0 MISS:          0 MSHR_MERGE:          0
cpu1->LLC TRANSLATION  ACCESS:        197 HIT:          0 MISS:        197 MSHR_MERGE:          0
cpu1->LLC PREFETCH REQUESTED:          0 ISSUED:          0 USEFUL:          0 USELESS:          0
cpu1->LLC AVERAGE MISS LATENCY: 2212 cycles
cpu2->LLC TOTAL        ACCESS:         54 HIT:         13 MISS:         41 MSHR_MERGE:         20
cpu2->LLC LOAD         ACCESS:         34 HIT:         13 MISS:         21 MSHR_MERGE:         20
cpu2->LLC RFO          ACCESS:          0 HIT:          0 MISS:          0 MSHR_MERGE:          0
cpu2->LLC PREFETCH     ACCESS:          0 HIT:          0 MISS:          0 MSHR_MERGE:          0
cpu2->LLC WRITE        ACCESS:          0 HIT:          0 MISS:          0 MSHR_MERGE:          0
cpu2->LLC TRANSLATION  ACCESS:         20 HIT:          0 MISS:         20 MSHR_MERGE:          0
cpu2->LLC PREFETCH REQUESTED:          0 ISSUED:          0 USEFUL:          0 USELESS:          0
cpu2->LLC AVERAGE MISS LATENCY: 2.028e+06 cycles
cpu3->LLC TOTAL        ACCESS:         54 HIT:          4 MISS:         50 MSHR_MERGE:         16
cpu3->LLC LOAD         ACCESS:         34 HIT:          4 MISS:         30 MSHR_MERGE:         16
cpu3->LLC RFO          ACCESS:          0 HIT:          0 MISS:          0 MSHR_MERGE:          0
cpu3->LLC PREFETCH     ACCESS:          0 HIT:          0 MISS:          0 MSHR_MERGE:          0
cpu3->LLC WRITE        ACCESS:          0 HIT:          0 MISS:          0 MSHR_MERGE:          0
cpu3->LLC TRANSLATION  ACCESS:         20 HIT:          0 MISS:         20 MSHR_MERGE:          0
cpu3->LLC PREFETCH REQUESTED:          0 ISSUED:          0 USEFUL:          0 USELESS:          0
cpu3->LLC AVERAGE MISS LATENCY: 2.08e+06 cycles
cpu4->LLC TOTAL        ACCESS:     511254 HIT:     243518 MISS:     267736 MSHR_MERGE:     174334
cpu4->LLC LOAD         ACCESS:     342506 HIT:     155994 MISS:     186512 MSHR_MERGE:     152802
cpu4->LLC RFO          ACCESS:      51475 HIT:      23770 MISS:      27705 MSHR_MERGE:      21532
cpu4->LLC PREFETCH     ACCESS:          0 HIT:          0 MISS:          0 MSHR_MERGE:          0
cpu4->LLC WRITE        ACCESS:     103677 HIT:      63710 MISS:      39967 MSHR_MERGE:          0
cpu4->LLC TRANSLATION  ACCESS:      13596 HIT:         44 MISS:      13552 MSHR_MERGE:          0
cpu4->LLC PREFETCH REQUESTED:          0 ISSUED:          0 USEFUL:          0 USELESS:          0
cpu4->LLC AVERAGE MISS LATENCY: 351.6 cycles
cpu5->LLC TOTAL        ACCESS:     292456 HIT:     149634 MISS:     142822 MSHR_MERGE:     117692
cpu5->LLC LOAD         ACCESS:     292259 HIT:     149634 MISS:     142625 MSHR_MERGE:     117692
cpu5->LLC RFO          ACCESS:          0 HIT:          0 MISS:          0 MSHR_MERGE:          0
cpu5->LLC PREFETCH     ACCESS:          0 HIT:          0 MISS:          0 MSHR_MERGE:          0
cpu5->LLC WRITE        ACCESS:          0 HIT:          0 MISS:          0 MSHR_MERGE:          0
cpu5->LLC TRANSLATION  ACCESS:        197 HIT:          0 MISS:        197 MSHR_MERGE:          0
cpu5->LLC PREFETCH REQUESTED:          0 ISSUED:          0 USEFUL:          0 USELESS:          0
cpu5->LLC AVERAGE MISS LATENCY: 683.1 cycles
cpu6->LLC TOTAL        ACCESS:         54 HIT:          0 MISS:         54 MSHR_MERGE:          1
cpu6->LLC LOAD         ACCESS:         34 HIT:          0 MISS:         34 MSHR_MERGE:          1
cpu6->LLC RFO          ACCESS:          0 HIT:          0 MISS:          0 MSHR_MERGE:          0
cpu6->LLC PREFETCH     ACCESS:          0 HIT:          0 MISS:          0 MSHR_MERGE:          0
cpu6->LLC WRITE        ACCESS:          0 HIT:          0 MISS:          0 MSHR_MERGE:          0
cpu6->LLC TRANSLATION  ACCESS:         20 HIT:          0 MISS:         20 MSHR_MERGE:          0
cpu6->LLC PREFETCH REQUESTED:          0 ISSUED:          0 USEFUL:          0 USELESS:          0
cpu6->LLC AVERAGE MISS LATENCY: 2.386e+06 cycles
cpu7->LLC TOTAL        ACCESS:         54 HIT:          3 MISS:         51 MSHR_MERGE:         11
cpu7->LLC LOAD         ACCESS:         34 HIT:          3 MISS:         31 MSHR_MERGE:         11
cpu7->LLC RFO          ACCESS:          0 HIT:          0 MISS:          0 MSHR_MERGE:          0
cpu7->LLC PREFETCH     ACCESS:          0 HIT:          0 MISS:          0 MSHR_MERGE:          0
cpu7->LLC WRITE        ACCESS:          0 HIT:          0 MISS:          0 MSHR_MERGE:          0
cpu7->LLC TRANSLATION  ACCESS:         20 HIT:          0 MISS:         20 MSHR_MERGE:          0
cpu7->LLC PREFETCH REQUESTED:          0 ISSUED:          0 USEFUL:          0 USELESS:          0
cpu7->LLC AVERAGE MISS LATENCY: 2.318e+06 cycles
LLC COHERENCE INVALIDATIONS:     184469
LLC COHERENCE WRITE-HIT OTHER-SHARER EVENTS:     120639
LLC SHARER HIST TOTAL:        8004240
LLC SHARER HIST[ 1]:        1638645  (20.472%)
LLC SHARER HIST[ 2]:         986629  (12.326%)
LLC SHARER HIST[ 3]:         857172  (10.709%)
LLC SHARER HIST[ 4]:        4502003  (56.245%)
LLC SHARER HIST[ 5]:            583  ( 0.007%)
LLC SHARER HIST[ 6]:           1934  ( 0.024%)
LLC SHARER HIST[ 7]:           1485  ( 0.019%)
LLC SHARER HIST[ 8]:          15789  ( 0.197%)

DRAM Statistics

Channel 0 RQ ROW_BUFFER_HIT:       2764
  ROW_BUFFER_MISS:     411350
  AVG DBUS CONGESTED CYCLE: 12.81
Channel 0 WQ ROW_BUFFER_HIT:      16610
  ROW_BUFFER_MISS:      72448
  FULL:         13
Channel 0 REFRESHES ISSUED:      13324

VMEM ALIASED FILLS (cross-CPU shared-page hits): 26692
