[VMEM] WARNING: physical memory size is smaller than virtual memory size.

*** ChampSim Multicore Out-of-Order Simulator ***
Warmup Instructions: 50000000
Simulation Instructions: 100000000
Number of CPUs: 8
Page size: 4096

Off-chip DRAM Size: 16 GiB Channels: 1 Width: 64-bit Data Rate: 3205 MT/s
Heartbeat CPU 3 instructions: 10000002 cycles: 2508105 heartbeat IPC: 3.987 cumulative IPC: 3.987 (Simulation time: 00 hr 10 min 49 sec)
Heartbeat CPU 2 instructions: 10000003 cycles: 2508181 heartbeat IPC: 3.987 cumulative IPC: 3.987 (Simulation time: 00 hr 10 min 49 sec)
Heartbeat CPU 6 instructions: 10000001 cycles: 2508181 heartbeat IPC: 3.987 cumulative IPC: 3.987 (Simulation time: 00 hr 10 min 49 sec)
Heartbeat CPU 7 instructions: 10000002 cycles: 2508302 heartbeat IPC: 3.987 cumulative IPC: 3.987 (Simulation time: 00 hr 10 min 49 sec)
Heartbeat CPU 4 instructions: 10000003 cycles: 2979816 heartbeat IPC: 3.356 cumulative IPC: 3.356 (Simulation time: 00 hr 12 min 43 sec)
Heartbeat CPU 0 instructions: 10000000 cycles: 2980105 heartbeat IPC: 3.356 cumulative IPC: 3.356 (Simulation time: 00 hr 12 min 43 sec)
Heartbeat CPU 1 instructions: 10000002 cycles: 4086009 heartbeat IPC: 2.447 cumulative IPC: 2.447 (Simulation time: 00 hr 16 min 56 sec)
Heartbeat CPU 5 instructions: 10000002 cycles: 4089643 heartbeat IPC: 2.445 cumulative IPC: 2.445 (Simulation time: 00 hr 16 min 57 sec)
Heartbeat CPU 3 instructions: 20000002 cycles: 5008105 heartbeat IPC: 4 cumulative IPC: 3.994 (Simulation time: 00 hr 20 min 34 sec)
Heartbeat CPU 2 instructions: 20000003 cycles: 5008181 heartbeat IPC: 4 cumulative IPC: 3.993 (Simulation time: 00 hr 20 min 34 sec)
Heartbeat CPU 6 instructions: 20000001 cycles: 5008181 heartbeat IPC: 4 cumulative IPC: 3.993 (Simulation time: 00 hr 20 min 34 sec)
Heartbeat CPU 7 instructions: 20000002 cycles: 5008302 heartbeat IPC: 4 cumulative IPC: 3.993 (Simulation time: 00 hr 20 min 34 sec)
Heartbeat CPU 3 instructions: 30000002 cycles: 7508105 heartbeat IPC: 4 cumulative IPC: 3.996 (Simulation time: 00 hr 30 min 13 sec)
Heartbeat CPU 2 instructions: 30000003 cycles: 7508181 heartbeat IPC: 4 cumulative IPC: 3.996 (Simulation time: 00 hr 30 min 13 sec)
Heartbeat CPU 6 instructions: 30000001 cycles: 7508181 heartbeat IPC: 4 cumulative IPC: 3.996 (Simulation time: 00 hr 30 min 13 sec)
Heartbeat CPU 7 instructions: 30000002 cycles: 7508302 heartbeat IPC: 4 cumulative IPC: 3.996 (Simulation time: 00 hr 30 min 13 sec)
Heartbeat CPU 1 instructions: 20000004 cycles: 7760142 heartbeat IPC: 2.722 cumulative IPC: 2.577 (Simulation time: 00 hr 31 min 12 sec)
Heartbeat CPU 5 instructions: 20000004 cycles: 7778236 heartbeat IPC: 2.711 cumulative IPC: 2.571 (Simulation time: 00 hr 31 min 17 sec)
Heartbeat CPU 3 instructions: 40000002 cycles: 10008105 heartbeat IPC: 4 cumulative IPC: 3.997 (Simulation time: 00 hr 39 min 56 sec)
Heartbeat CPU 2 instructions: 40000003 cycles: 10008181 heartbeat IPC: 4 cumulative IPC: 3.997 (Simulation time: 00 hr 39 min 56 sec)
Heartbeat CPU 6 instructions: 40000001 cycles: 10008181 heartbeat IPC: 4 cumulative IPC: 3.997 (Simulation time: 00 hr 39 min 56 sec)
Heartbeat CPU 7 instructions: 40000002 cycles: 10008302 heartbeat IPC: 4 cumulative IPC: 3.997 (Simulation time: 00 hr 39 min 56 sec)
Heartbeat CPU 1 instructions: 30000005 cycles: 11456573 heartbeat IPC: 2.705 cumulative IPC: 2.619 (Simulation time: 00 hr 45 min 20 sec)
Heartbeat CPU 5 instructions: 30000005 cycles: 11489300 heartbeat IPC: 2.695 cumulative IPC: 2.611 (Simulation time: 00 hr 45 min 27 sec)
Heartbeat CPU 3 instructions: 50000002 cycles: 12508105 heartbeat IPC: 4 cumulative IPC: 3.997 (Simulation time: 00 hr 49 min 13 sec)
Warmup finished CPU 3 instructions: 50000002 cycles: 12508105 cumulative IPC: 3.997 (Simulation time: 00 hr 49 min 13 sec)
Heartbeat CPU 2 instructions: 50000003 cycles: 12508181 heartbeat IPC: 4 cumulative IPC: 3.997 (Simulation time: 00 hr 49 min 13 sec)
Heartbeat CPU 6 instructions: 50000001 cycles: 12508181 heartbeat IPC: 4 cumulative IPC: 3.997 (Simulation time: 00 hr 49 min 13 sec)
Warmup finished CPU 6 instructions: 50000001 cycles: 12508181 cumulative IPC: 3.997 (Simulation time: 00 hr 49 min 13 sec)
Warmup finished CPU 2 instructions: 50000003 cycles: 12508181 cumulative IPC: 3.997 (Simulation time: 00 hr 49 min 13 sec)
Heartbeat CPU 7 instructions: 50000002 cycles: 12508302 heartbeat IPC: 4 cumulative IPC: 3.997 (Simulation time: 00 hr 49 min 13 sec)
Warmup finished CPU 7 instructions: 50000002 cycles: 12508302 cumulative IPC: 3.997 (Simulation time: 00 hr 49 min 13 sec)
Heartbeat CPU 0 instructions: 20000000 cycles: 13855676 heartbeat IPC: 0.9195 cumulative IPC: 1.443 (Simulation time: 00 hr 54 min 08 sec)
Heartbeat CPU 4 instructions: 20000005 cycles: 13855788 heartbeat IPC: 0.9195 cumulative IPC: 1.443 (Simulation time: 00 hr 54 min 08 sec)
Heartbeat CPU 3 instructions: 60000002 cycles: 15008105 heartbeat IPC: 4 cumulative IPC: 3.998 (Simulation time: 00 hr 58 min 23 sec)
Heartbeat CPU 2 instructions: 60000003 cycles: 15008181 heartbeat IPC: 4 cumulative IPC: 3.998 (Simulation time: 00 hr 58 min 23 sec)
Heartbeat CPU 6 instructions: 60000001 cycles: 15008181 heartbeat IPC: 4 cumulative IPC: 3.998 (Simulation time: 00 hr 58 min 23 sec)
Heartbeat CPU 7 instructions: 60000002 cycles: 15008302 heartbeat IPC: 4 cumulative IPC: 3.998 (Simulation time: 00 hr 58 min 23 sec)
Heartbeat CPU 1 instructions: 40000006 cycles: 15150638 heartbeat IPC: 2.707 cumulative IPC: 2.64 (Simulation time: 00 hr 58 min 56 sec)
Heartbeat CPU 5 instructions: 40000006 cycles: 15197996 heartbeat IPC: 2.696 cumulative IPC: 2.632 (Simulation time: 00 hr 59 min 07 sec)
Heartbeat CPU 3 instructions: 70000002 cycles: 17508105 heartbeat IPC: 4 cumulative IPC: 3.998 (Simulation time: 01 hr 08 min 12 sec)
Heartbeat CPU 2 instructions: 70000003 cycles: 17508181 heartbeat IPC: 4 cumulative IPC: 3.998 (Simulation time: 01 hr 08 min 12 sec)
Heartbeat CPU 6 instructions: 70000001 cycles: 17508181 heartbeat IPC: 4 cumulative IPC: 3.998 (Simulation time: 01 hr 08 min 12 sec)
Heartbeat CPU 7 instructions: 70000002 cycles: 17508302 heartbeat IPC: 4 cumulative IPC: 3.998 (Simulation time: 01 hr 08 min 12 sec)
Warmup finished CPU 1 instructions: 50000003 cycles: 18866031 cumulative IPC: 2.65 (Simulation time: 01 hr 13 min 35 sec)
Heartbeat CPU 1 instructions: 50000007 cycles: 18866032 heartbeat IPC: 2.692 cumulative IPC: 2.65 (Simulation time: 01 hr 13 min 35 sec)
Warmup finished CPU 5 instructions: 50000003 cycles: 18928315 cumulative IPC: 2.642 (Simulation time: 01 hr 13 min 50 sec)
Heartbeat CPU 5 instructions: 50000007 cycles: 18928316 heartbeat IPC: 2.681 cumulative IPC: 2.642 (Simulation time: 01 hr 13 min 50 sec)
Heartbeat CPU 3 instructions: 80000002 cycles: 20008105 heartbeat IPC: 4 cumulative IPC: 3.998 (Simulation time: 01 hr 18 min 07 sec)
Heartbeat CPU 2 instructions: 80000003 cycles: 20008181 heartbeat IPC: 4 cumulative IPC: 3.998 (Simulation time: 01 hr 18 min 07 sec)
Heartbeat CPU 6 instructions: 80000001 cycles: 20008181 heartbeat IPC: 4 cumulative IPC: 3.998 (Simulation time: 01 hr 18 min 07 sec)
Heartbeat CPU 7 instructions: 80000002 cycles: 20008302 heartbeat IPC: 4 cumulative IPC: 3.998 (Simulation time: 01 hr 18 min 07 sec)
Heartbeat CPU 1 instructions: 60000010 cycles: 22485159 heartbeat IPC: 2.763 cumulative IPC: 2.668 (Simulation time: 01 hr 27 min 45 sec)
Heartbeat CPU 3 instructions: 90000002 cycles: 22508105 heartbeat IPC: 4 cumulative IPC: 3.999 (Simulation time: 01 hr 27 min 50 sec)
Heartbeat CPU 2 instructions: 90000003 cycles: 22508181 heartbeat IPC: 4 cumulative IPC: 3.999 (Simulation time: 01 hr 27 min 50 sec)
Heartbeat CPU 6 instructions: 90000001 cycles: 22508181 heartbeat IPC: 4 cumulative IPC: 3.999 (Simulation time: 01 hr 27 min 50 sec)
Heartbeat CPU 7 instructions: 90000002 cycles: 22508302 heartbeat IPC: 4 cumulative IPC: 3.999 (Simulation time: 01 hr 27 min 50 sec)
Heartbeat CPU 5 instructions: 60000010 cycles: 22563357 heartbeat IPC: 2.751 cumulative IPC: 2.659 (Simulation time: 01 hr 28 min 02 sec)
Heartbeat CPU 3 instructions: 100000002 cycles: 25008105 heartbeat IPC: 4 cumulative IPC: 3.999 (Simulation time: 01 hr 37 min 23 sec)
Heartbeat CPU 2 instructions: 100000003 cycles: 25008181 heartbeat IPC: 4 cumulative IPC: 3.999 (Simulation time: 01 hr 37 min 23 sec)
Heartbeat CPU 6 instructions: 100000001 cycles: 25008181 heartbeat IPC: 4 cumulative IPC: 3.999 (Simulation time: 01 hr 37 min 23 sec)
Heartbeat CPU 7 instructions: 100000002 cycles: 25008302 heartbeat IPC: 4 cumulative IPC: 3.999 (Simulation time: 01 hr 37 min 23 sec)
Heartbeat CPU 1 instructions: 70000012 cycles: 26176899 heartbeat IPC: 2.709 cumulative IPC: 2.674 (Simulation time: 01 hr 41 min 54 sec)
Heartbeat CPU 5 instructions: 70000012 cycles: 26269966 heartbeat IPC: 2.698 cumulative IPC: 2.665 (Simulation time: 01 hr 42 min 16 sec)
Heartbeat CPU 3 instructions: 110000002 cycles: 27508105 heartbeat IPC: 4 cumulative IPC: 3.999 (Simulation time: 01 hr 46 min 55 sec)
Heartbeat CPU 2 instructions: 110000003 cycles: 27508181 heartbeat IPC: 4 cumulative IPC: 3.999 (Simulation time: 01 hr 46 min 55 sec)
Heartbeat CPU 6 instructions: 110000001 cycles: 27508181 heartbeat IPC: 4 cumulative IPC: 3.999 (Simulation time: 01 hr 46 min 55 sec)
Heartbeat CPU 7 instructions: 110000002 cycles: 27508302 heartbeat IPC: 4 cumulative IPC: 3.999 (Simulation time: 01 hr 46 min 55 sec)
Heartbeat CPU 4 instructions: 30000005 cycles: 28996695 heartbeat IPC: 0.6605 cumulative IPC: 1.035 (Simulation time: 01 hr 52 min 27 sec)
Heartbeat CPU 0 instructions: 30000000 cycles: 28996885 heartbeat IPC: 0.6604 cumulative IPC: 1.035 (Simulation time: 01 hr 52 min 27 sec)
Heartbeat CPU 1 instructions: 80000012 cycles: 29862440 heartbeat IPC: 2.713 cumulative IPC: 2.679 (Simulation time: 01 hr 55 min 38 sec)
Heartbeat CPU 5 instructions: 80000012 cycles: 29971032 heartbeat IPC: 2.702 cumulative IPC: 2.669 (Simulation time: 01 hr 56 min 02 sec)
Heartbeat CPU 3 instructions: 120000002 cycles: 30008105 heartbeat IPC: 4 cumulative IPC: 3.999 (Simulation time: 01 hr 56 min 11 sec)
Heartbeat CPU 2 instructions: 120000003 cycles: 30008181 heartbeat IPC: 4 cumulative IPC: 3.999 (Simulation time: 01 hr 56 min 11 sec)
Heartbeat CPU 6 instructions: 120000001 cycles: 30008181 heartbeat IPC: 4 cumulative IPC: 3.999 (Simulation time: 01 hr 56 min 11 sec)
Heartbeat CPU 7 instructions: 120000002 cycles: 30008302 heartbeat IPC: 4 cumulative IPC: 3.999 (Simulation time: 01 hr 56 min 11 sec)
Heartbeat CPU 3 instructions: 130000002 cycles: 32508105 heartbeat IPC: 4 cumulative IPC: 3.999 (Simulation time: 02 hr 05 min 30 sec)
Heartbeat CPU 2 instructions: 130000003 cycles: 32508181 heartbeat IPC: 4 cumulative IPC: 3.999 (Simulation time: 02 hr 05 min 30 sec)
Heartbeat CPU 6 instructions: 130000001 cycles: 32508181 heartbeat IPC: 4 cumulative IPC: 3.999 (Simulation time: 02 hr 05 min 30 sec)
Heartbeat CPU 7 instructions: 130000002 cycles: 32508302 heartbeat IPC: 4 cumulative IPC: 3.999 (Simulation time: 02 hr 05 min 30 sec)
Heartbeat CPU 1 instructions: 90000015 cycles: 33522398 heartbeat IPC: 2.732 cumulative IPC: 2.685 (Simulation time: 02 hr 09 min 07 sec)
Heartbeat CPU 5 instructions: 90000015 cycles: 33645871 heartbeat IPC: 2.721 cumulative IPC: 2.675 (Simulation time: 02 hr 09 min 34 sec)
Heartbeat CPU 3 instructions: 140000002 cycles: 35008105 heartbeat IPC: 4 cumulative IPC: 3.999 (Simulation time: 02 hr 14 min 31 sec)
Heartbeat CPU 2 instructions: 140000003 cycles: 35008181 heartbeat IPC: 4 cumulative IPC: 3.999 (Simulation time: 02 hr 14 min 31 sec)
Heartbeat CPU 6 instructions: 140000001 cycles: 35008181 heartbeat IPC: 4 cumulative IPC: 3.999 (Simulation time: 02 hr 14 min 31 sec)
Heartbeat CPU 7 instructions: 140000002 cycles: 35008302 heartbeat IPC: 4 cumulative IPC: 3.999 (Simulation time: 02 hr 14 min 32 sec)
Heartbeat CPU 1 instructions: 100000016 cycles: 37194216 heartbeat IPC: 2.723 cumulative IPC: 2.689 (Simulation time: 02 hr 22 min 38 sec)
Heartbeat CPU 5 instructions: 100000016 cycles: 37332898 heartbeat IPC: 2.712 cumulative IPC: 2.679 (Simulation time: 02 hr 23 min 10 sec)
Heartbeat CPU 3 instructions: 150000002 cycles: 37508105 heartbeat IPC: 4 cumulative IPC: 3.999 (Simulation time: 02 hr 23 min 50 sec)
Heartbeat CPU 2 instructions: 150000003 cycles: 37508181 heartbeat IPC: 4 cumulative IPC: 3.999 (Simulation time: 02 hr 23 min 50 sec)
Heartbeat CPU 6 instructions: 150000001 cycles: 37508181 heartbeat IPC: 4 cumulative IPC: 3.999 (Simulation time: 02 hr 23 min 50 sec)
Heartbeat CPU 7 instructions: 150000002 cycles: 37508302 heartbeat IPC: 4 cumulative IPC: 3.999 (Simulation time: 02 hr 23 min 50 sec)
Heartbeat CPU 3 instructions: 160000002 cycles: 40008105 heartbeat IPC: 4 cumulative IPC: 3.999 (Simulation time: 02 hr 33 min 10 sec)
Heartbeat CPU 2 instructions: 160000003 cycles: 40008181 heartbeat IPC: 4 cumulative IPC: 3.999 (Simulation time: 02 hr 33 min 10 sec)
Heartbeat CPU 6 instructions: 160000001 cycles: 40008181 heartbeat IPC: 4 cumulative IPC: 3.999 (Simulation time: 02 hr 33 min 10 sec)
Heartbeat CPU 7 instructions: 160000002 cycles: 40008302 heartbeat IPC: 4 cumulative IPC: 3.999 (Simulation time: 02 hr 33 min 10 sec)
Heartbeat CPU 1 instructions: 110000016 cycles: 40863117 heartbeat IPC: 2.726 cumulative IPC: 2.692 (Simulation time: 02 hr 36 min 18 sec)
Heartbeat CPU 5 instructions: 110000016 cycles: 41017042 heartbeat IPC: 2.714 cumulative IPC: 2.682 (Simulation time: 02 hr 36 min 51 sec)
Heartbeat CPU 3 instructions: 170000002 cycles: 42508105 heartbeat IPC: 4 cumulative IPC: 3.999 (Simulation time: 02 hr 42 min 28 sec)
Heartbeat CPU 2 instructions: 170000003 cycles: 42508181 heartbeat IPC: 4 cumulative IPC: 3.999 (Simulation time: 02 hr 42 min 28 sec)
Heartbeat CPU 6 instructions: 170000001 cycles: 42508181 heartbeat IPC: 4 cumulative IPC: 3.999 (Simulation time: 02 hr 42 min 28 sec)
Heartbeat CPU 7 instructions: 170000002 cycles: 42508302 heartbeat IPC: 4 cumulative IPC: 3.999 (Simulation time: 02 hr 42 min 28 sec)
Heartbeat CPU 4 instructions: 40000005 cycles: 44449726 heartbeat IPC: 0.6471 cumulative IPC: 0.8999 (Simulation time: 02 hr 49 min 49 sec)
Heartbeat CPU 0 instructions: 40000000 cycles: 44449916 heartbeat IPC: 0.6471 cumulative IPC: 0.8999 (Simulation time: 02 hr 49 min 49 sec)
Heartbeat CPU 1 instructions: 120000018 cycles: 44589725 heartbeat IPC: 2.683 cumulative IPC: 2.691 (Simulation time: 02 hr 50 min 21 sec)
Heartbeat CPU 5 instructions: 120000018 cycles: 44758390 heartbeat IPC: 2.673 cumulative IPC: 2.681 (Simulation time: 02 hr 51 min 00 sec)
Heartbeat CPU 3 instructions: 180000002 cycles: 45008105 heartbeat IPC: 4 cumulative IPC: 3.999 (Simulation time: 02 hr 51 min 58 sec)
Heartbeat CPU 2 instructions: 180000003 cycles: 45008181 heartbeat IPC: 4 cumulative IPC: 3.999 (Simulation time: 02 hr 51 min 58 sec)
Heartbeat CPU 6 instructions: 180000001 cycles: 45008181 heartbeat IPC: 4 cumulative IPC: 3.999 (Simulation time: 02 hr 51 min 58 sec)
Heartbeat CPU 7 instructions: 180000002 cycles: 45008302 heartbeat IPC: 4 cumulative IPC: 3.999 (Simulation time: 02 hr 51 min 58 sec)
Heartbeat CPU 3 instructions: 190000002 cycles: 47508105 heartbeat IPC: 4 cumulative IPC: 3.999 (Simulation time: 03 hr 01 min 08 sec)
Heartbeat CPU 2 instructions: 190000003 cycles: 47508181 heartbeat IPC: 4 cumulative IPC: 3.999 (Simulation time: 03 hr 01 min 08 sec)
Heartbeat CPU 6 instructions: 190000001 cycles: 47508181 heartbeat IPC: 4 cumulative IPC: 3.999 (Simulation time: 03 hr 01 min 08 sec)
Heartbeat CPU 7 instructions: 190000002 cycles: 47508302 heartbeat IPC: 4 cumulative IPC: 3.999 (Simulation time: 03 hr 01 min 08 sec)
Heartbeat CPU 1 instructions: 130000020 cycles: 48279469 heartbeat IPC: 2.71 cumulative IPC: 2.693 (Simulation time: 03 hr 04 min 01 sec)
Heartbeat CPU 5 instructions: 130000020 cycles: 48463193 heartbeat IPC: 2.699 cumulative IPC: 2.682 (Simulation time: 03 hr 04 min 44 sec)
Heartbeat CPU 3 instructions: 200000002 cycles: 50008105 heartbeat IPC: 4 cumulative IPC: 3.999 (Simulation time: 03 hr 10 min 33 sec)
Heartbeat CPU 2 instructions: 200000003 cycles: 50008181 heartbeat IPC: 4 cumulative IPC: 3.999 (Simulation time: 03 hr 10 min 33 sec)
Heartbeat CPU 6 instructions: 200000001 cycles: 50008181 heartbeat IPC: 4 cumulative IPC: 3.999 (Simulation time: 03 hr 10 min 33 sec)
Heartbeat CPU 7 instructions: 200000002 cycles: 50008302 heartbeat IPC: 4 cumulative IPC: 3.999 (Simulation time: 03 hr 10 min 33 sec)
Heartbeat CPU 1 instructions: 140000023 cycles: 51847350 heartbeat IPC: 2.803 cumulative IPC: 2.7 (Simulation time: 03 hr 17 min 11 sec)
Heartbeat CPU 5 instructions: 140000023 cycles: 52046067 heartbeat IPC: 2.791 cumulative IPC: 2.69 (Simulation time: 03 hr 17 min 54 sec)
Heartbeat CPU 3 instructions: 210000002 cycles: 52508105 heartbeat IPC: 4 cumulative IPC: 3.999 (Simulation time: 03 hr 19 min 38 sec)
Heartbeat CPU 2 instructions: 210000003 cycles: 52508181 heartbeat IPC: 4 cumulative IPC: 3.999 (Simulation time: 03 hr 19 min 38 sec)
Heartbeat CPU 6 instructions: 210000001 cycles: 52508181 heartbeat IPC: 4 cumulative IPC: 3.999 (Simulation time: 03 hr 19 min 38 sec)
Heartbeat CPU 7 instructions: 210000002 cycles: 52508302 heartbeat IPC: 4 cumulative IPC: 3.999 (Simulation time: 03 hr 19 min 38 sec)
Heartbeat CPU 3 instructions: 220000002 cycles: 55008105 heartbeat IPC: 4 cumulative IPC: 3.999 (Simulation time: 03 hr 28 min 50 sec)
Heartbeat CPU 2 instructions: 220000003 cycles: 55008181 heartbeat IPC: 4 cumulative IPC: 3.999 (Simulation time: 03 hr 28 min 50 sec)
Heartbeat CPU 6 instructions: 220000001 cycles: 55008181 heartbeat IPC: 4 cumulative IPC: 3.999 (Simulation time: 03 hr 28 min 50 sec)
Heartbeat CPU 7 instructions: 220000002 cycles: 55008302 heartbeat IPC: 4 cumulative IPC: 3.999 (Simulation time: 03 hr 28 min 50 sec)
Heartbeat CPU 1 instructions: 150000023 cycles: 55807567 heartbeat IPC: 2.525 cumulative IPC: 2.688 (Simulation time: 03 hr 31 min 44 sec)
Heartbeat CPU 5 instructions: 150000023 cycles: 56006159 heartbeat IPC: 2.525 cumulative IPC: 2.678 (Simulation time: 03 hr 32 min 27 sec)
Heartbeat CPU 3 instructions: 230000002 cycles: 57508105 heartbeat IPC: 4 cumulative IPC: 3.999 (Simulation time: 03 hr 37 min 31 sec)
Heartbeat CPU 2 instructions: 230000003 cycles: 57508181 heartbeat IPC: 4 cumulative IPC: 3.999 (Simulation time: 03 hr 37 min 31 sec)
Heartbeat CPU 6 instructions: 230000001 cycles: 57508181 heartbeat IPC: 4 cumulative IPC: 3.999 (Simulation time: 03 hr 37 min 31 sec)
Heartbeat CPU 7 instructions: 230000002 cycles: 57508302 heartbeat IPC: 4 cumulative IPC: 3.999 (Simulation time: 03 hr 37 min 31 sec)
Heartbeat CPU 1 instructions: 160000023 cycles: 59640652 heartbeat IPC: 2.609 cumulative IPC: 2.683 (Simulation time: 03 hr 45 min 34 sec)
Heartbeat CPU 5 instructions: 160000023 cycles: 59854803 heartbeat IPC: 2.598 cumulative IPC: 2.673 (Simulation time: 03 hr 46 min 23 sec)
Heartbeat CPU 3 instructions: 240000002 cycles: 60008105 heartbeat IPC: 4 cumulative IPC: 3.999 (Simulation time: 03 hr 46 min 57 sec)
Heartbeat CPU 2 instructions: 240000003 cycles: 60008181 heartbeat IPC: 4 cumulative IPC: 3.999 (Simulation time: 03 hr 46 min 57 sec)
Heartbeat CPU 6 instructions: 240000001 cycles: 60008181 heartbeat IPC: 4 cumulative IPC: 3.999 (Simulation time: 03 hr 46 min 57 sec)
Heartbeat CPU 7 instructions: 240000002 cycles: 60008302 heartbeat IPC: 4 cumulative IPC: 3.999 (Simulation time: 03 hr 46 min 57 sec)
Warmup finished CPU 4 instructions: 50000000 cycles: 60119089 cumulative IPC: 0.8317 (Simulation time: 03 hr 47 min 22 sec)
Heartbeat CPU 4 instructions: 50000005 cycles: 60119100 heartbeat IPC: 0.6382 cumulative IPC: 0.8317 (Simulation time: 03 hr 47 min 22 sec)
Heartbeat CPU 0 instructions: 50000000 cycles: 60119577 heartbeat IPC: 0.6382 cumulative IPC: 0.8317 (Simulation time: 03 hr 47 min 22 sec)
Warmup finished CPU 0 instructions: 50000000 cycles: 60119577 cumulative IPC: 0.8317 (Simulation time: 03 hr 47 min 22 sec)
Warmup complete CPU 7 instructions: 240445102 cycles: 60119577 cumulative IPC: 3.999 (Simulation time: 03 hr 47 min 22 sec)
Warmup complete CPU 6 instructions: 240445585 cycles: 60119577 cumulative IPC: 3.999 (Simulation time: 03 hr 47 min 22 sec)
Warmup complete CPU 5 instructions: 160718269 cycles: 60119577 cumulative IPC: 2.673 (Simulation time: 03 hr 47 min 22 sec)
Warmup complete CPU 4 instructions: 50000477 cycles: 60119577 cumulative IPC: 0.8317 (Simulation time: 03 hr 47 min 22 sec)
Warmup complete CPU 3 instructions: 240445890 cycles: 60119577 cumulative IPC: 3.999 (Simulation time: 03 hr 47 min 22 sec)
Warmup complete CPU 2 instructions: 240445587 cycles: 60119577 cumulative IPC: 3.999 (Simulation time: 03 hr 47 min 22 sec)
Warmup complete CPU 1 instructions: 161311252 cycles: 60119577 cumulative IPC: 2.683 (Simulation time: 03 hr 47 min 22 sec)
Warmup complete CPU 0 instructions: 50000000 cycles: 60119577 cumulative IPC: 0.8317 (Simulation time: 03 hr 47 min 22 sec)
Heartbeat CPU 3 instructions: 250000002 cycles: 62508105 heartbeat IPC: 4 cumulative IPC: 4 (Simulation time: 03 hr 55 min 59 sec)
Heartbeat CPU 2 instructions: 250000003 cycles: 62508181 heartbeat IPC: 4 cumulative IPC: 4 (Simulation time: 03 hr 55 min 59 sec)
Heartbeat CPU 6 instructions: 250000001 cycles: 62508181 heartbeat IPC: 4 cumulative IPC: 4 (Simulation time: 03 hr 55 min 59 sec)
Heartbeat CPU 7 instructions: 250000002 cycles: 62508302 heartbeat IPC: 4 cumulative IPC: 4 (Simulation time: 03 hr 55 min 59 sec)
Heartbeat CPU 1 instructions: 170000026 cycles: 64643844 heartbeat IPC: 1.999 cumulative IPC: 1.92 (Simulation time: 04 hr 03 min 41 sec)
Heartbeat CPU 5 instructions: 170000026 cycles: 64643946 heartbeat IPC: 2.088 cumulative IPC: 2.052 (Simulation time: 04 hr 03 min 41 sec)
Heartbeat CPU 3 instructions: 260000002 cycles: 65008105 heartbeat IPC: 4 cumulative IPC: 4 (Simulation time: 04 hr 05 min 00 sec)
Heartbeat CPU 2 instructions: 260000003 cycles: 65008181 heartbeat IPC: 4 cumulative IPC: 4 (Simulation time: 04 hr 05 min 01 sec)
Heartbeat CPU 6 instructions: 260000001 cycles: 65008181 heartbeat IPC: 4 cumulative IPC: 4 (Simulation time: 04 hr 05 min 01 sec)
Heartbeat CPU 7 instructions: 260000002 cycles: 65008302 heartbeat IPC: 4 cumulative IPC: 4 (Simulation time: 04 hr 05 min 01 sec)
Heartbeat CPU 3 instructions: 270000002 cycles: 67508105 heartbeat IPC: 4 cumulative IPC: 4 (Simulation time: 04 hr 14 min 33 sec)
Heartbeat CPU 2 instructions: 270000003 cycles: 67508181 heartbeat IPC: 4 cumulative IPC: 4 (Simulation time: 04 hr 14 min 33 sec)
Heartbeat CPU 6 instructions: 270000001 cycles: 67508181 heartbeat IPC: 4 cumulative IPC: 4 (Simulation time: 04 hr 14 min 33 sec)
Heartbeat CPU 7 instructions: 270000002 cycles: 67508302 heartbeat IPC: 4 cumulative IPC: 4 (Simulation time: 04 hr 14 min 33 sec)
Heartbeat CPU 1 instructions: 180000028 cycles: 69673669 heartbeat IPC: 1.988 cumulative IPC: 1.956 (Simulation time: 04 hr 22 min 43 sec)
Heartbeat CPU 5 instructions: 180000028 cycles: 69673682 heartbeat IPC: 1.988 cumulative IPC: 2.018 (Simulation time: 04 hr 22 min 43 sec)
Heartbeat CPU 3 instructions: 280000002 cycles: 70008105 heartbeat IPC: 4 cumulative IPC: 4 (Simulation time: 04 hr 23 min 59 sec)
Heartbeat CPU 2 instructions: 280000003 cycles: 70008181 heartbeat IPC: 4 cumulative IPC: 4 (Simulation time: 04 hr 23 min 59 sec)
Heartbeat CPU 6 instructions: 280000001 cycles: 70008181 heartbeat IPC: 4 cumulative IPC: 4 (Simulation time: 04 hr 23 min 59 sec)
Heartbeat CPU 7 instructions: 280000002 cycles: 70008302 heartbeat IPC: 4 cumulative IPC: 4 (Simulation time: 04 hr 23 min 59 sec)
Heartbeat CPU 3 instructions: 290000002 cycles: 72508105 heartbeat IPC: 4 cumulative IPC: 4 (Simulation time: 04 hr 33 min 10 sec)
Heartbeat CPU 2 instructions: 290000003 cycles: 72508181 heartbeat IPC: 4 cumulative IPC: 4 (Simulation time: 04 hr 33 min 10 sec)
Heartbeat CPU 6 instructions: 290000001 cycles: 72508181 heartbeat IPC: 4 cumulative IPC: 4 (Simulation time: 04 hr 33 min 10 sec)
Heartbeat CPU 7 instructions: 290000002 cycles: 72508302 heartbeat IPC: 4 cumulative IPC: 4 (Simulation time: 04 hr 33 min 10 sec)
Heartbeat CPU 1 instructions: 190000028 cycles: 74565236 heartbeat IPC: 2.044 cumulative IPC: 1.986 (Simulation time: 04 hr 40 min 17 sec)
Heartbeat CPU 5 instructions: 190000028 cycles: 74565260 heartbeat IPC: 2.044 cumulative IPC: 2.027 (Simulation time: 04 hr 40 min 17 sec)
Heartbeat CPU 3 instructions: 300000002 cycles: 75008105 heartbeat IPC: 4 cumulative IPC: 4 (Simulation time: 04 hr 41 min 50 sec)
Heartbeat CPU 2 instructions: 300000003 cycles: 75008181 heartbeat IPC: 4 cumulative IPC: 4 (Simulation time: 04 hr 41 min 50 sec)
Heartbeat CPU 6 instructions: 300000001 cycles: 75008181 heartbeat IPC: 4 cumulative IPC: 4 (Simulation time: 04 hr 41 min 50 sec)
Heartbeat CPU 7 instructions: 300000002 cycles: 75008302 heartbeat IPC: 4 cumulative IPC: 4 (Simulation time: 04 hr 41 min 50 sec)
Heartbeat CPU 3 instructions: 310000002 cycles: 77508105 heartbeat IPC: 4 cumulative IPC: 4 (Simulation time: 04 hr 50 min 22 sec)
Heartbeat CPU 2 instructions: 310000003 cycles: 77508181 heartbeat IPC: 4 cumulative IPC: 4 (Simulation time: 04 hr 50 min 22 sec)
Heartbeat CPU 6 instructions: 310000001 cycles: 77508181 heartbeat IPC: 4 cumulative IPC: 4 (Simulation time: 04 hr 50 min 22 sec)
Heartbeat CPU 7 instructions: 310000002 cycles: 77508302 heartbeat IPC: 4 cumulative IPC: 4 (Simulation time: 04 hr 50 min 22 sec)
Heartbeat CPU 1 instructions: 200000028 cycles: 79353912 heartbeat IPC: 2.088 cumulative IPC: 2.011 (Simulation time: 04 hr 56 min 47 sec)
Heartbeat CPU 5 instructions: 200000028 cycles: 79354060 heartbeat IPC: 2.088 cumulative IPC: 2.042 (Simulation time: 04 hr 56 min 47 sec)
Heartbeat CPU 0 instructions: 60000004 cycles: 79785720 heartbeat IPC: 0.5085 cumulative IPC: 0.5085 (Simulation time: 04 hr 58 min 18 sec)
Heartbeat CPU 4 instructions: 60000007 cycles: 79785777 heartbeat IPC: 0.5085 cumulative IPC: 0.5085 (Simulation time: 04 hr 58 min 18 sec)
Heartbeat CPU 3 instructions: 320000002 cycles: 80008105 heartbeat IPC: 4 cumulative IPC: 4 (Simulation time: 04 hr 59 min 05 sec)
Heartbeat CPU 2 instructions: 320000003 cycles: 80008181 heartbeat IPC: 4 cumulative IPC: 4 (Simulation time: 04 hr 59 min 05 sec)
Heartbeat CPU 6 instructions: 320000001 cycles: 80008181 heartbeat IPC: 4 cumulative IPC: 4 (Simulation time: 04 hr 59 min 05 sec)
Heartbeat CPU 7 instructions: 320000002 cycles: 80008302 heartbeat IPC: 4 cumulative IPC: 4 (Simulation time: 04 hr 59 min 05 sec)
Heartbeat CPU 3 instructions: 330000002 cycles: 82508105 heartbeat IPC: 4 cumulative IPC: 4 (Simulation time: 05 hr 08 min 14 sec)
Heartbeat CPU 2 instructions: 330000003 cycles: 82508181 heartbeat IPC: 4 cumulative IPC: 4 (Simulation time: 05 hr 08 min 14 sec)
Heartbeat CPU 6 instructions: 330000001 cycles: 82508181 heartbeat IPC: 4 cumulative IPC: 4 (Simulation time: 05 hr 08 min 14 sec)
Heartbeat CPU 7 instructions: 330000002 cycles: 82508302 heartbeat IPC: 4 cumulative IPC: 4 (Simulation time: 05 hr 08 min 14 sec)
Heartbeat CPU 5 instructions: 210000031 cycles: 84288679 heartbeat IPC: 2.026 cumulative IPC: 2.039 (Simulation time: 05 hr 14 min 56 sec)
Heartbeat CPU 1 instructions: 210000031 cycles: 84288679 heartbeat IPC: 2.026 cumulative IPC: 2.015 (Simulation time: 05 hr 14 min 56 sec)
Heartbeat CPU 3 instructions: 340000002 cycles: 85008105 heartbeat IPC: 4 cumulative IPC: 4 (Simulation time: 05 hr 17 min 33 sec)
Heartbeat CPU 2 instructions: 340000003 cycles: 85008181 heartbeat IPC: 4 cumulative IPC: 4 (Simulation time: 05 hr 17 min 33 sec)
Heartbeat CPU 6 instructions: 340000001 cycles: 85008181 heartbeat IPC: 4 cumulative IPC: 4 (Simulation time: 05 hr 17 min 33 sec)
Heartbeat CPU 7 instructions: 340000002 cycles: 85008302 heartbeat IPC: 4 cumulative IPC: 4 (Simulation time: 05 hr 17 min 33 sec)
Simulation finished CPU 7 instructions: 100000000 cycles: 25000000 cumulative IPC: 4 (Simulation time: 05 hr 17 min 58 sec)
Simulation finished CPU 6 instructions: 100000000 cycles: 25000000 cumulative IPC: 4 (Simulation time: 05 hr 17 min 58 sec)
Simulation finished CPU 3 instructions: 100000000 cycles: 25000000 cumulative IPC: 4 (Simulation time: 05 hr 17 min 58 sec)
Simulation finished CPU 2 instructions: 100000000 cycles: 25000000 cumulative IPC: 4 (Simulation time: 05 hr 17 min 58 sec)
Heartbeat CPU 3 instructions: 350000002 cycles: 87508105 heartbeat IPC: 4 cumulative IPC: 4 (Simulation time: 05 hr 26 min 48 sec)
Heartbeat CPU 2 instructions: 350000003 cycles: 87508181 heartbeat IPC: 4 cumulative IPC: 4 (Simulation time: 05 hr 26 min 48 sec)
Heartbeat CPU 6 instructions: 350000001 cycles: 87508181 heartbeat IPC: 4 cumulative IPC: 4 (Simulation time: 05 hr 26 min 48 sec)
Heartbeat CPU 7 instructions: 350000002 cycles: 87508302 heartbeat IPC: 4 cumulative IPC: 4 (Simulation time: 05 hr 26 min 48 sec)
Heartbeat CPU 1 instructions: 220000031 cycles: 89316085 heartbeat IPC: 1.989 cumulative IPC: 2.01 (Simulation time: 05 hr 33 min 33 sec)
Heartbeat CPU 5 instructions: 220000031 cycles: 89316149 heartbeat IPC: 1.989 cumulative IPC: 2.03 (Simulation time: 05 hr 33 min 33 sec)
Heartbeat CPU 3 instructions: 360000002 cycles: 90008105 heartbeat IPC: 4 cumulative IPC: 4 (Simulation time: 05 hr 36 min 08 sec)
Heartbeat CPU 2 instructions: 360000003 cycles: 90008181 heartbeat IPC: 4 cumulative IPC: 4 (Simulation time: 05 hr 36 min 08 sec)
Heartbeat CPU 6 instructions: 360000001 cycles: 90008181 heartbeat IPC: 4 cumulative IPC: 4 (Simulation time: 05 hr 36 min 08 sec)
Heartbeat CPU 7 instructions: 360000002 cycles: 90008302 heartbeat IPC: 4 cumulative IPC: 4 (Simulation time: 05 hr 36 min 09 sec)
Heartbeat CPU 3 instructions: 370000002 cycles: 92508105 heartbeat IPC: 4 cumulative IPC: 4 (Simulation time: 05 hr 45 min 39 sec)
Heartbeat CPU 2 instructions: 370000003 cycles: 92508181 heartbeat IPC: 4 cumulative IPC: 4 (Simulation time: 05 hr 45 min 39 sec)
Heartbeat CPU 6 instructions: 370000001 cycles: 92508181 heartbeat IPC: 4 cumulative IPC: 4 (Simulation time: 05 hr 45 min 39 sec)
Heartbeat CPU 7 instructions: 370000002 cycles: 92508302 heartbeat IPC: 4 cumulative IPC: 4 (Simulation time: 05 hr 45 min 39 sec)
Heartbeat CPU 1 instructions: 230000032 cycles: 94220016 heartbeat IPC: 2.039 cumulative IPC: 2.014 (Simulation time: 05 hr 52 min 05 sec)
Heartbeat CPU 5 instructions: 230000034 cycles: 94220049 heartbeat IPC: 2.039 cumulative IPC: 2.032 (Simulation time: 05 hr 52 min 05 sec)
Heartbeat CPU 3 instructions: 380000002 cycles: 95008105 heartbeat IPC: 4 cumulative IPC: 4 (Simulation time: 05 hr 55 min 03 sec)
Heartbeat CPU 2 instructions: 380000003 cycles: 95008181 heartbeat IPC: 4 cumulative IPC: 4 (Simulation time: 05 hr 55 min 03 sec)
Heartbeat CPU 6 instructions: 380000001 cycles: 95008181 heartbeat IPC: 4 cumulative IPC: 4 (Simulation time: 05 hr 55 min 03 sec)
Heartbeat CPU 7 instructions: 380000002 cycles: 95008302 heartbeat IPC: 4 cumulative IPC: 4 (Simulation time: 05 hr 55 min 03 sec)
Heartbeat CPU 3 instructions: 390000002 cycles: 97508105 heartbeat IPC: 4 cumulative IPC: 4 (Simulation time: 06 hr 04 min 19 sec)
Heartbeat CPU 2 instructions: 390000003 cycles: 97508181 heartbeat IPC: 4 cumulative IPC: 4 (Simulation time: 06 hr 04 min 19 sec)
Heartbeat CPU 6 instructions: 390000001 cycles: 97508181 heartbeat IPC: 4 cumulative IPC: 4 (Simulation time: 06 hr 04 min 19 sec)
Heartbeat CPU 7 instructions: 390000002 cycles: 97508302 heartbeat IPC: 4 cumulative IPC: 4 (Simulation time: 06 hr 04 min 19 sec)
Heartbeat CPU 0 instructions: 70000007 cycles: 99137526 heartbeat IPC: 0.5167 cumulative IPC: 0.5126 (Simulation time: 06 hr 10 min 15 sec)
Heartbeat CPU 4 instructions: 70000007 cycles: 99137635 heartbeat IPC: 0.5167 cumulative IPC: 0.5126 (Simulation time: 06 hr 10 min 15 sec)
Heartbeat CPU 1 instructions: 240000035 cycles: 99213546 heartbeat IPC: 2.003 cumulative IPC: 2.013 (Simulation time: 06 hr 10 min 31 sec)
Heartbeat CPU 5 instructions: 240000037 cycles: 99213606 heartbeat IPC: 2.003 cumulative IPC: 2.028 (Simulation time: 06 hr 10 min 31 sec)
Heartbeat CPU 3 instructions: 400000002 cycles: 100008105 heartbeat IPC: 4 cumulative IPC: 4 (Simulation time: 06 hr 13 min 23 sec)
Heartbeat CPU 2 instructions: 400000003 cycles: 100008181 heartbeat IPC: 4 cumulative IPC: 4 (Simulation time: 06 hr 13 min 23 sec)
Heartbeat CPU 6 instructions: 400000001 cycles: 100008181 heartbeat IPC: 4 cumulative IPC: 4 (Simulation time: 06 hr 13 min 23 sec)
Heartbeat CPU 7 instructions: 400000002 cycles: 100008302 heartbeat IPC: 4 cumulative IPC: 4 (Simulation time: 06 hr 13 min 23 sec)
Heartbeat CPU 2 instructions: 410000003 cycles: 102508181 heartbeat IPC: 4 cumulative IPC: 4 (Simulation time: 06 hr 22 min 32 sec)
Heartbeat CPU 6 instructions: 410000001 cycles: 102508181 heartbeat IPC: 4 cumulative IPC: 4 (Simulation time: 06 hr 22 min 32 sec)
Heartbeat CPU 3 instructions: 410000004 cycles: 102508235 heartbeat IPC: 4 cumulative IPC: 4 (Simulation time: 06 hr 22 min 32 sec)
Heartbeat CPU 7 instructions: 410000002 cycles: 102508302 heartbeat IPC: 4 cumulative IPC: 4 (Simulation time: 06 hr 22 min 32 sec)
Heartbeat CPU 1 instructions: 250000035 cycles: 104288555 heartbeat IPC: 1.97 cumulative IPC: 2.008 (Simulation time: 06 hr 29 min 15 sec)
Heartbeat CPU 5 instructions: 250000037 cycles: 104288853 heartbeat IPC: 1.97 cumulative IPC: 2.021 (Simulation time: 06 hr 29 min 15 sec)
Heartbeat CPU 3 instructions: 420000004 cycles: 105008235 heartbeat IPC: 4 cumulative IPC: 4 (Simulation time: 06 hr 32 min 03 sec)
Heartbeat CPU 7 instructions: 420000002 cycles: 105008302 heartbeat IPC: 4 cumulative IPC: 4 (Simulation time: 06 hr 32 min 03 sec)
Heartbeat CPU 6 instructions: 420000004 cycles: 105008303 heartbeat IPC: 4 cumulative IPC: 4 (Simulation time: 06 hr 32 min 03 sec)
Heartbeat CPU 2 instructions: 420000004 cycles: 105008309 heartbeat IPC: 4 cumulative IPC: 4 (Simulation time: 06 hr 32 min 03 sec)
Heartbeat CPU 3 instructions: 430000004 cycles: 107508235 heartbeat IPC: 4 cumulative IPC: 4 (Simulation time: 06 hr 41 min 40 sec)
Heartbeat CPU 7 instructions: 430000002 cycles: 107508302 heartbeat IPC: 4 cumulative IPC: 4 (Simulation time: 06 hr 41 min 40 sec)
Heartbeat CPU 6 instructions: 430000004 cycles: 107508303 heartbeat IPC: 4 cumulative IPC: 4 (Simulation time: 06 hr 41 min 40 sec)
Heartbeat CPU 2 instructions: 430000004 cycles: 107508309 heartbeat IPC: 4 cumulative IPC: 4 (Simulation time: 06 hr 41 min 40 sec)
Heartbeat CPU 1 instructions: 260000038 cycles: 109382905 heartbeat IPC: 1.963 cumulative IPC: 2.003 (Simulation time: 06 hr 48 min 43 sec)
Heartbeat CPU 5 instructions: 260000038 cycles: 109382912 heartbeat IPC: 1.963 cumulative IPC: 2.015 (Simulation time: 06 hr 48 min 43 sec)
Simulation finished CPU 5 instructions: 100000002 cycles: 49667801 cumulative IPC: 2.013 (Simulation time: 06 hr 50 min 15 sec)
Heartbeat CPU 3 instructions: 440000004 cycles: 110008235 heartbeat IPC: 4 cumulative IPC: 4 (Simulation time: 06 hr 51 min 05 sec)
Heartbeat CPU 7 instructions: 440000002 cycles: 110008302 heartbeat IPC: 4 cumulative IPC: 4 (Simulation time: 06 hr 51 min 05 sec)
Heartbeat CPU 6 instructions: 440000004 cycles: 110008303 heartbeat IPC: 4 cumulative IPC: 4 (Simulation time: 06 hr 51 min 05 sec)
Heartbeat CPU 2 instructions: 440000004 cycles: 110008309 heartbeat IPC: 4 cumulative IPC: 4 (Simulation time: 06 hr 51 min 05 sec)
Simulation finished CPU 1 instructions: 100000003 cycles: 49963950 cumulative IPC: 2.001 (Simulation time: 06 hr 51 min 22 sec)
Heartbeat CPU 3 instructions: 450000004 cycles: 112508235 heartbeat IPC: 4 cumulative IPC: 4 (Simulation time: 07 hr 00 min 15 sec)
Heartbeat CPU 7 instructions: 450000002 cycles: 112508302 heartbeat IPC: 4 cumulative IPC: 4 (Simulation time: 07 hr 00 min 15 sec)
Heartbeat CPU 6 instructions: 450000004 cycles: 112508303 heartbeat IPC: 4 cumulative IPC: 4 (Simulation time: 07 hr 00 min 15 sec)
Heartbeat CPU 2 instructions: 450000004 cycles: 112508309 heartbeat IPC: 4 cumulative IPC: 4 (Simulation time: 07 hr 00 min 15 sec)
Heartbeat CPU 1 instructions: 270000040 cycles: 114472058 heartbeat IPC: 1.965 cumulative IPC: 2 (Simulation time: 07 hr 07 min 30 sec)
Heartbeat CPU 5 instructions: 270000040 cycles: 114472069 heartbeat IPC: 1.965 cumulative IPC: 2.011 (Simulation time: 07 hr 07 min 30 sec)
Heartbeat CPU 3 instructions: 460000004 cycles: 115008235 heartbeat IPC: 4 cumulative IPC: 4 (Simulation time: 07 hr 09 min 32 sec)
Heartbeat CPU 7 instructions: 460000002 cycles: 115008302 heartbeat IPC: 4 cumulative IPC: 4 (Simulation time: 07 hr 09 min 32 sec)
Heartbeat CPU 6 instructions: 460000004 cycles: 115008303 heartbeat IPC: 4 cumulative IPC: 4 (Simulation time: 07 hr 09 min 32 sec)
Heartbeat CPU 2 instructions: 460000004 cycles: 115008309 heartbeat IPC: 4 cumulative IPC: 4 (Simulation time: 07 hr 09 min 32 sec)
Heartbeat CPU 3 instructions: 470000004 cycles: 117508235 heartbeat IPC: 4 cumulative IPC: 4 (Simulation time: 07 hr 18 min 53 sec)
Heartbeat CPU 7 instructions: 470000002 cycles: 117508302 heartbeat IPC: 4 cumulative IPC: 4 (Simulation time: 07 hr 18 min 53 sec)
Heartbeat CPU 6 instructions: 470000004 cycles: 117508303 heartbeat IPC: 4 cumulative IPC: 4 (Simulation time: 07 hr 18 min 53 sec)
Heartbeat CPU 2 instructions: 470000004 cycles: 117508309 heartbeat IPC: 4 cumulative IPC: 4 (Simulation time: 07 hr 18 min 53 sec)
Heartbeat CPU 0 instructions: 80000009 cycles: 117923290 heartbeat IPC: 0.5323 cumulative IPC: 0.519 (Simulation time: 07 hr 20 min 25 sec)
Heartbeat CPU 4 instructions: 80000009 cycles: 117923371 heartbeat IPC: 0.5323 cumulative IPC: 0.519 (Simulation time: 07 hr 20 min 25 sec)
Heartbeat CPU 3 instructions: 480000004 cycles: 120008235 heartbeat IPC: 4 cumulative IPC: 4 (Simulation time: 07 hr 27 min 52 sec)
Heartbeat CPU 7 instructions: 480000002 cycles: 120008302 heartbeat IPC: 4 cumulative IPC: 4 (Simulation time: 07 hr 27 min 52 sec)
Heartbeat CPU 6 instructions: 480000004 cycles: 120008303 heartbeat IPC: 4 cumulative IPC: 4 (Simulation time: 07 hr 27 min 52 sec)
Heartbeat CPU 2 instructions: 480000004 cycles: 120008309 heartbeat IPC: 4 cumulative IPC: 4 (Simulation time: 07 hr 27 min 52 sec)
Heartbeat CPU 1 instructions: 280000042 cycles: 120795010 heartbeat IPC: 1.582 cumulative IPC: 1.956 (Simulation time: 07 hr 30 min 45 sec)
Heartbeat CPU 5 instructions: 280000042 cycles: 120795068 heartbeat IPC: 1.582 cumulative IPC: 1.966 (Simulation time: 07 hr 30 min 45 sec)
Heartbeat CPU 3 instructions: 490000004 cycles: 122508235 heartbeat IPC: 4 cumulative IPC: 4 (Simulation time: 07 hr 37 min 02 sec)
Heartbeat CPU 7 instructions: 490000002 cycles: 122508302 heartbeat IPC: 4 cumulative IPC: 4 (Simulation time: 07 hr 37 min 02 sec)
Heartbeat CPU 6 instructions: 490000004 cycles: 122508303 heartbeat IPC: 4 cumulative IPC: 4 (Simulation time: 07 hr 37 min 02 sec)
Heartbeat CPU 2 instructions: 490000004 cycles: 122508309 heartbeat IPC: 4 cumulative IPC: 4 (Simulation time: 07 hr 37 min 02 sec)
Heartbeat CPU 3 instructions: 500000004 cycles: 125008235 heartbeat IPC: 4 cumulative IPC: 4 (Simulation time: 07 hr 45 min 54 sec)
Heartbeat CPU 7 instructions: 500000002 cycles: 125008302 heartbeat IPC: 4 cumulative IPC: 4 (Simulation time: 07 hr 45 min 54 sec)
Heartbeat CPU 6 instructions: 500000004 cycles: 125008303 heartbeat IPC: 4 cumulative IPC: 4 (Simulation time: 07 hr 45 min 54 sec)
Heartbeat CPU 2 instructions: 500000004 cycles: 125008309 heartbeat IPC: 4 cumulative IPC: 4 (Simulation time: 07 hr 45 min 54 sec)
Heartbeat CPU 3 instructions: 510000004 cycles: 127508235 heartbeat IPC: 4 cumulative IPC: 4 (Simulation time: 07 hr 54 min 58 sec)
Heartbeat CPU 7 instructions: 510000002 cycles: 127508302 heartbeat IPC: 4 cumulative IPC: 4 (Simulation time: 07 hr 54 min 58 sec)
Heartbeat CPU 6 instructions: 510000004 cycles: 127508303 heartbeat IPC: 4 cumulative IPC: 4 (Simulation time: 07 hr 54 min 58 sec)
Heartbeat CPU 2 instructions: 510000004 cycles: 127508309 heartbeat IPC: 4 cumulative IPC: 4 (Simulation time: 07 hr 54 min 58 sec)
Heartbeat CPU 1 instructions: 290000042 cycles: 127870735 heartbeat IPC: 1.413 cumulative IPC: 1.899 (Simulation time: 07 hr 56 min 20 sec)
Heartbeat CPU 5 instructions: 290000042 cycles: 127870894 heartbeat IPC: 1.413 cumulative IPC: 1.908 (Simulation time: 07 hr 56 min 20 sec)
Heartbeat CPU 3 instructions: 520000004 cycles: 130008235 heartbeat IPC: 4 cumulative IPC: 4 (Simulation time: 08 hr 04 min 09 sec)
Heartbeat CPU 7 instructions: 520000002 cycles: 130008302 heartbeat IPC: 4 cumulative IPC: 4 (Simulation time: 08 hr 04 min 09 sec)
Heartbeat CPU 6 instructions: 520000004 cycles: 130008303 heartbeat IPC: 4 cumulative IPC: 4 (Simulation time: 08 hr 04 min 09 sec)
Heartbeat CPU 2 instructions: 520000004 cycles: 130008309 heartbeat IPC: 4 cumulative IPC: 4 (Simulation time: 08 hr 04 min 09 sec)
Heartbeat CPU 3 instructions: 530000004 cycles: 132508235 heartbeat IPC: 4 cumulative IPC: 4 (Simulation time: 08 hr 13 min 28 sec)
Heartbeat CPU 7 instructions: 530000002 cycles: 132508302 heartbeat IPC: 4 cumulative IPC: 4 (Simulation time: 08 hr 13 min 28 sec)
Heartbeat CPU 6 instructions: 530000004 cycles: 132508303 heartbeat IPC: 4 cumulative IPC: 4 (Simulation time: 08 hr 13 min 28 sec)
Heartbeat CPU 2 instructions: 530000004 cycles: 132508309 heartbeat IPC: 4 cumulative IPC: 4 (Simulation time: 08 hr 13 min 28 sec)
Heartbeat CPU 1 instructions: 300000043 cycles: 133247193 heartbeat IPC: 1.86 cumulative IPC: 1.897 (Simulation time: 08 hr 16 min 08 sec)
Heartbeat CPU 5 instructions: 300000043 cycles: 133247206 heartbeat IPC: 1.86 cumulative IPC: 1.905 (Simulation time: 08 hr 16 min 08 sec)
*** Reached end of trace: (7, "/home/harshraj/COALESCE-Hashed-Perceptron-Cache-Replacement-Policy/simulator/traces/barnes_4t3.champsimtrace")
*** Reached end of trace: (3, "/home/harshraj/COALESCE-Hashed-Perceptron-Cache-Replacement-Policy/simulator/traces/barnes_4t3.champsimtrace")
Heartbeat CPU 6 instructions: 540000004 cycles: 135008303 heartbeat IPC: 4 cumulative IPC: 4 (Simulation time: 08 hr 22 min 50 sec)
Heartbeat CPU 2 instructions: 540000004 cycles: 135008309 heartbeat IPC: 4 cumulative IPC: 4 (Simulation time: 08 hr 22 min 50 sec)
Heartbeat CPU 3 instructions: 540000006 cycles: 135015910 heartbeat IPC: 3.988 cumulative IPC: 4 (Simulation time: 08 hr 22 min 52 sec)
Heartbeat CPU 7 instructions: 540000002 cycles: 135015919 heartbeat IPC: 3.988 cumulative IPC: 4 (Simulation time: 08 hr 22 min 52 sec)
Heartbeat CPU 6 instructions: 550000004 cycles: 137508303 heartbeat IPC: 4 cumulative IPC: 4 (Simulation time: 08 hr 32 min 17 sec)
Heartbeat CPU 2 instructions: 550000004 cycles: 137508309 heartbeat IPC: 4 cumulative IPC: 4 (Simulation time: 08 hr 32 min 17 sec)
Heartbeat CPU 3 instructions: 550000006 cycles: 137515910 heartbeat IPC: 4 cumulative IPC: 4 (Simulation time: 08 hr 32 min 19 sec)
Heartbeat CPU 7 instructions: 550000002 cycles: 137515919 heartbeat IPC: 4 cumulative IPC: 4 (Simulation time: 08 hr 32 min 19 sec)
Heartbeat CPU 0 instructions: 90000010 cycles: 137625878 heartbeat IPC: 0.5075 cumulative IPC: 0.5161 (Simulation time: 08 hr 32 min 45 sec)
Heartbeat CPU 4 instructions: 90000010 cycles: 137625879 heartbeat IPC: 0.5075 cumulative IPC: 0.5161 (Simulation time: 08 hr 32 min 45 sec)
Heartbeat CPU 5 instructions: 310000043 cycles: 138332543 heartbeat IPC: 1.966 cumulative IPC: 1.909 (Simulation time: 08 hr 35 min 06 sec)
Heartbeat CPU 1 instructions: 310000043 cycles: 138332543 heartbeat IPC: 1.966 cumulative IPC: 1.901 (Simulation time: 08 hr 35 min 06 sec)
*** Reached end of trace: (6, "/home/harshraj/COALESCE-Hashed-Perceptron-Cache-Replacement-Policy/simulator/traces/barnes_4t2.champsimtrace")
*** Reached end of trace: (2, "/home/harshraj/COALESCE-Hashed-Perceptron-Cache-Replacement-Policy/simulator/traces/barnes_4t2.champsimtrace")
Heartbeat CPU 6 instructions: 560000007 cycles: 140015200 heartbeat IPC: 3.989 cumulative IPC: 4 (Simulation time: 08 hr 41 min 30 sec)
Heartbeat CPU 2 instructions: 560000005 cycles: 140015214 heartbeat IPC: 3.989 cumulative IPC: 4 (Simulation time: 08 hr 41 min 30 sec)
Heartbeat CPU 3 instructions: 560000006 cycles: 140015910 heartbeat IPC: 4 cumulative IPC: 4 (Simulation time: 08 hr 41 min 30 sec)
Heartbeat CPU 7 instructions: 560000002 cycles: 140015919 heartbeat IPC: 4 cumulative IPC: 4 (Simulation time: 08 hr 41 min 30 sec)
Heartbeat CPU 6 instructions: 570000007 cycles: 142515200 heartbeat IPC: 4 cumulative IPC: 4 (Simulation time: 08 hr 51 min 15 sec)
Heartbeat CPU 2 instructions: 570000005 cycles: 142515214 heartbeat IPC: 4 cumulative IPC: 4 (Simulation time: 08 hr 51 min 15 sec)
Heartbeat CPU 3 instructions: 570000006 cycles: 142515910 heartbeat IPC: 4 cumulative IPC: 4 (Simulation time: 08 hr 51 min 15 sec)
Heartbeat CPU 7 instructions: 570000002 cycles: 142515919 heartbeat IPC: 4 cumulative IPC: 4 (Simulation time: 08 hr 51 min 15 sec)
Heartbeat CPU 1 instructions: 320000046 cycles: 143621966 heartbeat IPC: 1.891 cumulative IPC: 1.9 (Simulation time: 08 hr 55 min 31 sec)
Heartbeat CPU 5 instructions: 320000046 cycles: 143622212 heartbeat IPC: 1.89 cumulative IPC: 1.908 (Simulation time: 08 hr 55 min 31 sec)
Heartbeat CPU 6 instructions: 580000007 cycles: 145015200 heartbeat IPC: 4 cumulative IPC: 4 (Simulation time: 09 hr 00 min 44 sec)
Heartbeat CPU 2 instructions: 580000005 cycles: 145015214 heartbeat IPC: 4 cumulative IPC: 4 (Simulation time: 09 hr 00 min 44 sec)
Heartbeat CPU 3 instructions: 580000006 cycles: 145015910 heartbeat IPC: 4 cumulative IPC: 4 (Simulation time: 09 hr 00 min 44 sec)
Heartbeat CPU 7 instructions: 580000002 cycles: 145015919 heartbeat IPC: 4 cumulative IPC: 4 (Simulation time: 09 hr 00 min 44 sec)
Heartbeat CPU 6 instructions: 590000007 cycles: 147515200 heartbeat IPC: 4 cumulative IPC: 4 (Simulation time: 09 hr 10 min 25 sec)
Heartbeat CPU 2 instructions: 590000005 cycles: 147515214 heartbeat IPC: 4 cumulative IPC: 4 (Simulation time: 09 hr 10 min 25 sec)
Heartbeat CPU 3 instructions: 590000006 cycles: 147515910 heartbeat IPC: 4 cumulative IPC: 4 (Simulation time: 09 hr 10 min 25 sec)
Heartbeat CPU 7 instructions: 590000002 cycles: 147515919 heartbeat IPC: 4 cumulative IPC: 4 (Simulation time: 09 hr 10 min 25 sec)
Heartbeat CPU 1 instructions: 330000048 cycles: 148760950 heartbeat IPC: 1.946 cumulative IPC: 1.903 (Simulation time: 09 hr 15 min 12 sec)
Heartbeat CPU 5 instructions: 330000048 cycles: 148761163 heartbeat IPC: 1.946 cumulative IPC: 1.91 (Simulation time: 09 hr 15 min 12 sec)
Heartbeat CPU 6 instructions: 600000007 cycles: 150015200 heartbeat IPC: 4 cumulative IPC: 4 (Simulation time: 09 hr 19 min 49 sec)
Heartbeat CPU 2 instructions: 600000005 cycles: 150015214 heartbeat IPC: 4 cumulative IPC: 4 (Simulation time: 09 hr 19 min 49 sec)
Heartbeat CPU 3 instructions: 600000006 cycles: 150015910 heartbeat IPC: 4 cumulative IPC: 4 (Simulation time: 09 hr 19 min 50 sec)
Heartbeat CPU 7 instructions: 600000002 cycles: 150015919 heartbeat IPC: 4 cumulative IPC: 4 (Simulation time: 09 hr 19 min 50 sec)
Heartbeat CPU 6 instructions: 610000007 cycles: 152515200 heartbeat IPC: 4 cumulative IPC: 4 (Simulation time: 09 hr 29 min 04 sec)
Heartbeat CPU 2 instructions: 610000005 cycles: 152515214 heartbeat IPC: 4 cumulative IPC: 4 (Simulation time: 09 hr 29 min 04 sec)
Heartbeat CPU 3 instructions: 610000006 cycles: 152515910 heartbeat IPC: 4 cumulative IPC: 4 (Simulation time: 09 hr 29 min 04 sec)
Heartbeat CPU 7 instructions: 610000002 cycles: 152515919 heartbeat IPC: 4 cumulative IPC: 4 (Simulation time: 09 hr 29 min 04 sec)
Heartbeat CPU 1 instructions: 340000051 cycles: 153659874 heartbeat IPC: 2.041 cumulative IPC: 1.91 (Simulation time: 09 hr 33 min 16 sec)
Heartbeat CPU 5 instructions: 340000051 cycles: 153660051 heartbeat IPC: 2.041 cumulative IPC: 1.917 (Simulation time: 09 hr 33 min 16 sec)
Heartbeat CPU 6 instructions: 620000007 cycles: 155015200 heartbeat IPC: 4 cumulative IPC: 4 (Simulation time: 09 hr 38 min 14 sec)
Heartbeat CPU 2 instructions: 620000005 cycles: 155015214 heartbeat IPC: 4 cumulative IPC: 4 (Simulation time: 09 hr 38 min 14 sec)
Heartbeat CPU 3 instructions: 620000006 cycles: 155015910 heartbeat IPC: 4 cumulative IPC: 4 (Simulation time: 09 hr 38 min 14 sec)
Heartbeat CPU 7 instructions: 620000002 cycles: 155015919 heartbeat IPC: 4 cumulative IPC: 4 (Simulation time: 09 hr 38 min 14 sec)
Heartbeat CPU 0 instructions: 100000010 cycles: 156238725 heartbeat IPC: 0.5373 cumulative IPC: 0.5202 (Simulation time: 09 hr 42 min 48 sec)
Heartbeat CPU 4 instructions: 100000010 cycles: 156238726 heartbeat IPC: 0.5373 cumulative IPC: 0.5202 (Simulation time: 09 hr 42 min 48 sec)
Heartbeat CPU 6 instructions: 630000007 cycles: 157515200 heartbeat IPC: 4 cumulative IPC: 4 (Simulation time: 09 hr 47 min 46 sec)
Heartbeat CPU 2 instructions: 630000005 cycles: 157515214 heartbeat IPC: 4 cumulative IPC: 4 (Simulation time: 09 hr 47 min 46 sec)
Heartbeat CPU 3 instructions: 630000006 cycles: 157515910 heartbeat IPC: 4 cumulative IPC: 4 (Simulation time: 09 hr 47 min 46 sec)
Heartbeat CPU 7 instructions: 630000002 cycles: 157515919 heartbeat IPC: 4 cumulative IPC: 4 (Simulation time: 09 hr 47 min 46 sec)
Heartbeat CPU 1 instructions: 350000052 cycles: 158140843 heartbeat IPC: 2.232 cumulative IPC: 1.925 (Simulation time: 09 hr 50 min 15 sec)
Heartbeat CPU 5 instructions: 350000053 cycles: 158140878 heartbeat IPC: 2.232 cumulative IPC: 1.931 (Simulation time: 09 hr 50 min 15 sec)
Heartbeat CPU 6 instructions: 640000007 cycles: 160015200 heartbeat IPC: 4 cumulative IPC: 4 (Simulation time: 09 hr 57 min 38 sec)
Heartbeat CPU 2 instructions: 640000005 cycles: 160015214 heartbeat IPC: 4 cumulative IPC: 4 (Simulation time: 09 hr 57 min 38 sec)
Heartbeat CPU 3 instructions: 640000006 cycles: 160015910 heartbeat IPC: 4 cumulative IPC: 4 (Simulation time: 09 hr 57 min 38 sec)
Heartbeat CPU 7 instructions: 640000002 cycles: 160015919 heartbeat IPC: 4 cumulative IPC: 4 (Simulation time: 09 hr 57 min 38 sec)
Heartbeat CPU 6 instructions: 650000007 cycles: 162515200 heartbeat IPC: 4 cumulative IPC: 4 (Simulation time: 10 hr 07 min 11 sec)
Heartbeat CPU 2 instructions: 650000005 cycles: 162515214 heartbeat IPC: 4 cumulative IPC: 4 (Simulation time: 10 hr 07 min 11 sec)
Heartbeat CPU 3 instructions: 650000006 cycles: 162515910 heartbeat IPC: 4 cumulative IPC: 4 (Simulation time: 10 hr 07 min 11 sec)
Heartbeat CPU 7 instructions: 650000002 cycles: 162515919 heartbeat IPC: 4 cumulative IPC: 4 (Simulation time: 10 hr 07 min 11 sec)
Heartbeat CPU 1 instructions: 360000055 cycles: 163180092 heartbeat IPC: 1.984 cumulative IPC: 1.928 (Simulation time: 10 hr 09 min 32 sec)
Heartbeat CPU 5 instructions: 360000055 cycles: 163180120 heartbeat IPC: 1.984 cumulative IPC: 1.934 (Simulation time: 10 hr 09 min 32 sec)
Heartbeat CPU 6 instructions: 660000007 cycles: 165015200 heartbeat IPC: 4 cumulative IPC: 4 (Simulation time: 10 hr 16 min 18 sec)
Heartbeat CPU 2 instructions: 660000005 cycles: 165015214 heartbeat IPC: 4 cumulative IPC: 4 (Simulation time: 10 hr 16 min 18 sec)
Heartbeat CPU 3 instructions: 660000006 cycles: 165015910 heartbeat IPC: 4 cumulative IPC: 4 (Simulation time: 10 hr 16 min 18 sec)
Heartbeat CPU 7 instructions: 660000002 cycles: 165015919 heartbeat IPC: 4 cumulative IPC: 4 (Simulation time: 10 hr 16 min 18 sec)
Heartbeat CPU 6 instructions: 670000007 cycles: 167515200 heartbeat IPC: 4 cumulative IPC: 4 (Simulation time: 10 hr 25 min 40 sec)
Heartbeat CPU 2 instructions: 670000005 cycles: 167515214 heartbeat IPC: 4 cumulative IPC: 4 (Simulation time: 10 hr 25 min 40 sec)
Heartbeat CPU 3 instructions: 670000006 cycles: 167515910 heartbeat IPC: 4 cumulative IPC: 4 (Simulation time: 10 hr 25 min 40 sec)
Heartbeat CPU 7 instructions: 670000002 cycles: 167515919 heartbeat IPC: 4 cumulative IPC: 4 (Simulation time: 10 hr 25 min 40 sec)
Heartbeat CPU 1 instructions: 370000056 cycles: 167898333 heartbeat IPC: 2.119 cumulative IPC: 1.936 (Simulation time: 10 hr 27 min 05 sec)
Heartbeat CPU 5 instructions: 370000056 cycles: 167898338 heartbeat IPC: 2.119 cumulative IPC: 1.942 (Simulation time: 10 hr 27 min 05 sec)
Heartbeat CPU 6 instructions: 680000007 cycles: 170015200 heartbeat IPC: 4 cumulative IPC: 4 (Simulation time: 10 hr 34 min 47 sec)
Heartbeat CPU 2 instructions: 680000005 cycles: 170015214 heartbeat IPC: 4 cumulative IPC: 4 (Simulation time: 10 hr 34 min 47 sec)
Heartbeat CPU 3 instructions: 680000006 cycles: 170015910 heartbeat IPC: 4 cumulative IPC: 4 (Simulation time: 10 hr 34 min 48 sec)
Heartbeat CPU 7 instructions: 680000002 cycles: 170015919 heartbeat IPC: 4 cumulative IPC: 4 (Simulation time: 10 hr 34 min 48 sec)
Heartbeat CPU 6 instructions: 690000007 cycles: 172515200 heartbeat IPC: 4 cumulative IPC: 4 (Simulation time: 10 hr 43 min 42 sec)
Heartbeat CPU 2 instructions: 690000005 cycles: 172515214 heartbeat IPC: 4 cumulative IPC: 4 (Simulation time: 10 hr 43 min 42 sec)
Heartbeat CPU 3 instructions: 690000006 cycles: 172515910 heartbeat IPC: 4 cumulative IPC: 4 (Simulation time: 10 hr 43 min 42 sec)
Heartbeat CPU 7 instructions: 690000002 cycles: 172515919 heartbeat IPC: 4 cumulative IPC: 4 (Simulation time: 10 hr 43 min 42 sec)
Heartbeat CPU 1 instructions: 380000058 cycles: 172961868 heartbeat IPC: 1.975 cumulative IPC: 1.938 (Simulation time: 10 hr 45 min 21 sec)
Heartbeat CPU 5 instructions: 380000058 cycles: 172962221 heartbeat IPC: 1.975 cumulative IPC: 1.943 (Simulation time: 10 hr 45 min 21 sec)
Heartbeat CPU 0 instructions: 110000010 cycles: 173468151 heartbeat IPC: 0.5804 cumulative IPC: 0.5293 (Simulation time: 10 hr 47 min 11 sec)
Heartbeat CPU 4 instructions: 110000010 cycles: 173468161 heartbeat IPC: 0.5804 cumulative IPC: 0.5293 (Simulation time: 10 hr 47 min 11 sec)
Heartbeat CPU 6 instructions: 700000007 cycles: 175015200 heartbeat IPC: 4 cumulative IPC: 4 (Simulation time: 10 hr 52 min 50 sec)
Heartbeat CPU 2 instructions: 700000005 cycles: 175015214 heartbeat IPC: 4 cumulative IPC: 4 (Simulation time: 10 hr 52 min 50 sec)
Heartbeat CPU 3 instructions: 700000006 cycles: 175015910 heartbeat IPC: 4 cumulative IPC: 4 (Simulation time: 10 hr 52 min 50 sec)
Heartbeat CPU 7 instructions: 700000002 cycles: 175015919 heartbeat IPC: 4 cumulative IPC: 4 (Simulation time: 10 hr 52 min 50 sec)
Heartbeat CPU 6 instructions: 710000007 cycles: 177515200 heartbeat IPC: 4 cumulative IPC: 4 (Simulation time: 11 hr 02 min 15 sec)
Heartbeat CPU 2 instructions: 710000005 cycles: 177515214 heartbeat IPC: 4 cumulative IPC: 4 (Simulation time: 11 hr 02 min 15 sec)
Heartbeat CPU 3 instructions: 710000006 cycles: 177515910 heartbeat IPC: 4 cumulative IPC: 4 (Simulation time: 11 hr 02 min 15 sec)
Heartbeat CPU 7 instructions: 710000002 cycles: 177515919 heartbeat IPC: 4 cumulative IPC: 4 (Simulation time: 11 hr 02 min 15 sec)
Heartbeat CPU 1 instructions: 390000061 cycles: 178718222 heartbeat IPC: 1.737 cumulative IPC: 1.928 (Simulation time: 11 hr 06 min 40 sec)
Heartbeat CPU 5 instructions: 390000061 cycles: 178718279 heartbeat IPC: 1.737 cumulative IPC: 1.933 (Simulation time: 11 hr 06 min 41 sec)
Heartbeat CPU 6 instructions: 720000007 cycles: 180015200 heartbeat IPC: 4 cumulative IPC: 4 (Simulation time: 11 hr 11 min 26 sec)
Heartbeat CPU 2 instructions: 720000005 cycles: 180015214 heartbeat IPC: 4 cumulative IPC: 4 (Simulation time: 11 hr 11 min 26 sec)
Heartbeat CPU 3 instructions: 720000006 cycles: 180015910 heartbeat IPC: 4 cumulative IPC: 4 (Simulation time: 11 hr 11 min 26 sec)
Heartbeat CPU 7 instructions: 720000002 cycles: 180015919 heartbeat IPC: 4 cumulative IPC: 4 (Simulation time: 11 hr 11 min 26 sec)
Heartbeat CPU 6 instructions: 730000007 cycles: 182515200 heartbeat IPC: 4 cumulative IPC: 4 (Simulation time: 11 hr 20 min 02 sec)
Heartbeat CPU 2 instructions: 730000005 cycles: 182515214 heartbeat IPC: 4 cumulative IPC: 4 (Simulation time: 11 hr 20 min 02 sec)
Heartbeat CPU 3 instructions: 730000006 cycles: 182515910 heartbeat IPC: 4 cumulative IPC: 4 (Simulation time: 11 hr 20 min 02 sec)
Heartbeat CPU 7 instructions: 730000002 cycles: 182515919 heartbeat IPC: 4 cumulative IPC: 4 (Simulation time: 11 hr 20 min 02 sec)
Heartbeat CPU 1 instructions: 400000063 cycles: 184813755 heartbeat IPC: 1.641 cumulative IPC: 1.914 (Simulation time: 11 hr 29 min 13 sec)
Heartbeat CPU 5 instructions: 400000063 cycles: 184813758 heartbeat IPC: 1.641 cumulative IPC: 1.919 (Simulation time: 11 hr 29 min 13 sec)
Heartbeat CPU 6 instructions: 740000007 cycles: 185015200 heartbeat IPC: 4 cumulative IPC: 4 (Simulation time: 11 hr 29 min 54 sec)
Heartbeat CPU 2 instructions: 740000005 cycles: 185015214 heartbeat IPC: 4 cumulative IPC: 4 (Simulation time: 11 hr 29 min 54 sec)
Heartbeat CPU 3 instructions: 740000006 cycles: 185015910 heartbeat IPC: 4 cumulative IPC: 4 (Simulation time: 11 hr 29 min 54 sec)
Heartbeat CPU 7 instructions: 740000002 cycles: 185015919 heartbeat IPC: 4 cumulative IPC: 4 (Simulation time: 11 hr 29 min 54 sec)
Heartbeat CPU 6 instructions: 750000007 cycles: 187515200 heartbeat IPC: 4 cumulative IPC: 4 (Simulation time: 11 hr 38 min 33 sec)
Heartbeat CPU 2 instructions: 750000005 cycles: 187515214 heartbeat IPC: 4 cumulative IPC: 4 (Simulation time: 11 hr 38 min 33 sec)
Heartbeat CPU 3 instructions: 750000006 cycles: 187515910 heartbeat IPC: 4 cumulative IPC: 4 (Simulation time: 11 hr 38 min 33 sec)
Heartbeat CPU 7 instructions: 750000002 cycles: 187515919 heartbeat IPC: 4 cumulative IPC: 4 (Simulation time: 11 hr 38 min 33 sec)
Heartbeat CPU 6 instructions: 760000007 cycles: 190015200 heartbeat IPC: 4 cumulative IPC: 4 (Simulation time: 11 hr 48 min 15 sec)
Heartbeat CPU 2 instructions: 760000005 cycles: 190015214 heartbeat IPC: 4 cumulative IPC: 4 (Simulation time: 11 hr 48 min 15 sec)
Heartbeat CPU 3 instructions: 760000006 cycles: 190015910 heartbeat IPC: 4 cumulative IPC: 4 (Simulation time: 11 hr 48 min 15 sec)
Heartbeat CPU 7 instructions: 760000002 cycles: 190015919 heartbeat IPC: 4 cumulative IPC: 4 (Simulation time: 11 hr 48 min 15 sec)
Heartbeat CPU 0 instructions: 120000010 cycles: 190068952 heartbeat IPC: 0.6024 cumulative IPC: 0.5387 (Simulation time: 11 hr 48 min 28 sec)
Heartbeat CPU 4 instructions: 120000010 cycles: 190068997 heartbeat IPC: 0.6024 cumulative IPC: 0.5387 (Simulation time: 11 hr 48 min 28 sec)
Heartbeat CPU 1 instructions: 410000064 cycles: 190379226 heartbeat IPC: 1.797 cumulative IPC: 1.909 (Simulation time: 11 hr 49 min 46 sec)
Heartbeat CPU 5 instructions: 410000064 cycles: 190379228 heartbeat IPC: 1.797 cumulative IPC: 1.914 (Simulation time: 11 hr 49 min 46 sec)
Heartbeat CPU 6 instructions: 770000007 cycles: 192515200 heartbeat IPC: 4 cumulative IPC: 4 (Simulation time: 11 hr 58 min 31 sec)
Heartbeat CPU 2 instructions: 770000005 cycles: 192515214 heartbeat IPC: 4 cumulative IPC: 4 (Simulation time: 11 hr 58 min 31 sec)
Heartbeat CPU 3 instructions: 770000006 cycles: 192515910 heartbeat IPC: 4 cumulative IPC: 4 (Simulation time: 11 hr 58 min 31 sec)
Heartbeat CPU 7 instructions: 770000002 cycles: 192515919 heartbeat IPC: 4 cumulative IPC: 4 (Simulation time: 11 hr 58 min 31 sec)
Heartbeat CPU 6 instructions: 780000007 cycles: 195015200 heartbeat IPC: 4 cumulative IPC: 4 (Simulation time: 12 hr 08 min 51 sec)
Heartbeat CPU 2 instructions: 780000005 cycles: 195015214 heartbeat IPC: 4 cumulative IPC: 4 (Simulation time: 12 hr 08 min 51 sec)
Heartbeat CPU 3 instructions: 780000006 cycles: 195015910 heartbeat IPC: 4 cumulative IPC: 4 (Simulation time: 12 hr 08 min 52 sec)
Heartbeat CPU 7 instructions: 780000002 cycles: 195015919 heartbeat IPC: 4 cumulative IPC: 4 (Simulation time: 12 hr 08 min 52 sec)
Heartbeat CPU 6 instructions: 790000007 cycles: 197515200 heartbeat IPC: 4 cumulative IPC: 4 (Simulation time: 12 hr 18 min 53 sec)
Heartbeat CPU 2 instructions: 790000005 cycles: 197515214 heartbeat IPC: 4 cumulative IPC: 4 (Simulation time: 12 hr 18 min 53 sec)
Heartbeat CPU 3 instructions: 790000006 cycles: 197515910 heartbeat IPC: 4 cumulative IPC: 4 (Simulation time: 12 hr 18 min 53 sec)
Heartbeat CPU 7 instructions: 790000002 cycles: 197515919 heartbeat IPC: 4 cumulative IPC: 4 (Simulation time: 12 hr 18 min 53 sec)
Heartbeat CPU 1 instructions: 420000066 cycles: 198703786 heartbeat IPC: 1.201 cumulative IPC: 1.867 (Simulation time: 12 hr 23 min 29 sec)
Heartbeat CPU 5 instructions: 420000066 cycles: 198703786 heartbeat IPC: 1.201 cumulative IPC: 1.871 (Simulation time: 12 hr 23 min 29 sec)
Heartbeat CPU 6 instructions: 800000007 cycles: 200015200 heartbeat IPC: 4 cumulative IPC: 4 (Simulation time: 12 hr 28 min 08 sec)
Heartbeat CPU 2 instructions: 800000005 cycles: 200015214 heartbeat IPC: 4 cumulative IPC: 4 (Simulation time: 12 hr 28 min 08 sec)
Heartbeat CPU 3 instructions: 800000006 cycles: 200015910 heartbeat IPC: 4 cumulative IPC: 4 (Simulation time: 12 hr 28 min 08 sec)
Heartbeat CPU 7 instructions: 800000002 cycles: 200015919 heartbeat IPC: 4 cumulative IPC: 4 (Simulation time: 12 hr 28 min 08 sec)
Heartbeat CPU 0 instructions: 130000012 cycles: 202459570 heartbeat IPC: 0.8071 cumulative IPC: 0.562 (Simulation time: 12 hr 37 min 14 sec)
Heartbeat CPU 4 instructions: 130000012 cycles: 202459653 heartbeat IPC: 0.8071 cumulative IPC: 0.562 (Simulation time: 12 hr 37 min 14 sec)
Heartbeat CPU 6 instructions: 810000007 cycles: 202515200 heartbeat IPC: 4 cumulative IPC: 4 (Simulation time: 12 hr 37 min 26 sec)
Heartbeat CPU 2 instructions: 810000005 cycles: 202515214 heartbeat IPC: 4 cumulative IPC: 4 (Simulation time: 12 hr 37 min 26 sec)
Heartbeat CPU 3 instructions: 810000006 cycles: 202515910 heartbeat IPC: 4 cumulative IPC: 4 (Simulation time: 12 hr 37 min 26 sec)
Heartbeat CPU 7 instructions: 810000002 cycles: 202515919 heartbeat IPC: 4 cumulative IPC: 4 (Simulation time: 12 hr 37 min 26 sec)
Heartbeat CPU 1 instructions: 430000066 cycles: 204760463 heartbeat IPC: 1.651 cumulative IPC: 1.858 (Simulation time: 12 hr 46 min 02 sec)
Heartbeat CPU 5 instructions: 430000066 cycles: 204760499 heartbeat IPC: 1.651 cumulative IPC: 1.862 (Simulation time: 12 hr 46 min 02 sec)
Heartbeat CPU 6 instructions: 820000007 cycles: 205015200 heartbeat IPC: 4 cumulative IPC: 4 (Simulation time: 12 hr 47 min 04 sec)
Heartbeat CPU 2 instructions: 820000005 cycles: 205015214 heartbeat IPC: 4 cumulative IPC: 4 (Simulation time: 12 hr 47 min 04 sec)
Heartbeat CPU 3 instructions: 820000006 cycles: 205015910 heartbeat IPC: 4 cumulative IPC: 4 (Simulation time: 12 hr 47 min 04 sec)
Heartbeat CPU 7 instructions: 820000002 cycles: 205015919 heartbeat IPC: 4 cumulative IPC: 4 (Simulation time: 12 hr 47 min 04 sec)
Heartbeat CPU 6 instructions: 830000007 cycles: 207515200 heartbeat IPC: 4 cumulative IPC: 4 (Simulation time: 12 hr 57 min 11 sec)
Heartbeat CPU 2 instructions: 830000005 cycles: 207515214 heartbeat IPC: 4 cumulative IPC: 4 (Simulation time: 12 hr 57 min 11 sec)
Heartbeat CPU 3 instructions: 830000006 cycles: 207515910 heartbeat IPC: 4 cumulative IPC: 4 (Simulation time: 12 hr 57 min 11 sec)
Heartbeat CPU 7 instructions: 830000002 cycles: 207515919 heartbeat IPC: 4 cumulative IPC: 4 (Simulation time: 12 hr 57 min 11 sec)
Heartbeat CPU 0 instructions: 140000015 cycles: 209210216 heartbeat IPC: 1.481 cumulative IPC: 0.6037 (Simulation time: 13 hr 04 min 31 sec)
Heartbeat CPU 4 instructions: 140000015 cycles: 209222263 heartbeat IPC: 1.479 cumulative IPC: 0.6036 (Simulation time: 13 hr 04 min 35 sec)
Heartbeat CPU 1 instructions: 440000069 cycles: 209971575 heartbeat IPC: 1.919 cumulative IPC: 1.86 (Simulation time: 13 hr 08 min 02 sec)
Heartbeat CPU 5 instructions: 440000069 cycles: 209971630 heartbeat IPC: 1.919 cumulative IPC: 1.864 (Simulation time: 13 hr 08 min 02 sec)
Heartbeat CPU 6 instructions: 840000007 cycles: 210015200 heartbeat IPC: 4 cumulative IPC: 4 (Simulation time: 13 hr 08 min 14 sec)
Heartbeat CPU 2 instructions: 840000005 cycles: 210015214 heartbeat IPC: 4 cumulative IPC: 4 (Simulation time: 13 hr 08 min 14 sec)
Heartbeat CPU 3 instructions: 840000006 cycles: 210015910 heartbeat IPC: 4 cumulative IPC: 4 (Simulation time: 13 hr 08 min 14 sec)
Heartbeat CPU 7 instructions: 840000002 cycles: 210015919 heartbeat IPC: 4 cumulative IPC: 4 (Simulation time: 13 hr 08 min 14 sec)
Heartbeat CPU 6 instructions: 850000007 cycles: 212515200 heartbeat IPC: 4 cumulative IPC: 4 (Simulation time: 13 hr 18 min 23 sec)
Heartbeat CPU 2 instructions: 850000005 cycles: 212515214 heartbeat IPC: 4 cumulative IPC: 4 (Simulation time: 13 hr 18 min 23 sec)
Heartbeat CPU 3 instructions: 850000006 cycles: 212515910 heartbeat IPC: 4 cumulative IPC: 4 (Simulation time: 13 hr 18 min 23 sec)
Heartbeat CPU 7 instructions: 850000002 cycles: 212515919 heartbeat IPC: 4 cumulative IPC: 4 (Simulation time: 13 hr 18 min 23 sec)
Heartbeat CPU 6 instructions: 860000007 cycles: 215015200 heartbeat IPC: 4 cumulative IPC: 4 (Simulation time: 13 hr 27 min 59 sec)
Heartbeat CPU 2 instructions: 860000005 cycles: 215015214 heartbeat IPC: 4 cumulative IPC: 4 (Simulation time: 13 hr 27 min 59 sec)
Heartbeat CPU 3 instructions: 860000006 cycles: 215015910 heartbeat IPC: 4 cumulative IPC: 4 (Simulation time: 13 hr 27 min 59 sec)
Heartbeat CPU 7 instructions: 860000002 cycles: 215015919 heartbeat IPC: 4 cumulative IPC: 4 (Simulation time: 13 hr 27 min 59 sec)
Heartbeat CPU 1 instructions: 450000070 cycles: 215390464 heartbeat IPC: 1.845 cumulative IPC: 1.859 (Simulation time: 13 hr 29 min 22 sec)
Heartbeat CPU 5 instructions: 450000070 cycles: 215390555 heartbeat IPC: 1.845 cumulative IPC: 1.863 (Simulation time: 13 hr 29 min 22 sec)
Heartbeat CPU 6 instructions: 870000007 cycles: 217515200 heartbeat IPC: 4 cumulative IPC: 4 (Simulation time: 13 hr 37 min 18 sec)
Heartbeat CPU 2 instructions: 870000005 cycles: 217515214 heartbeat IPC: 4 cumulative IPC: 4 (Simulation time: 13 hr 37 min 18 sec)
Heartbeat CPU 3 instructions: 870000006 cycles: 217515910 heartbeat IPC: 4 cumulative IPC: 4 (Simulation time: 13 hr 37 min 18 sec)
Heartbeat CPU 7 instructions: 870000002 cycles: 217515919 heartbeat IPC: 4 cumulative IPC: 4 (Simulation time: 13 hr 37 min 18 sec)
Heartbeat CPU 6 instructions: 880000007 cycles: 220015200 heartbeat IPC: 4 cumulative IPC: 4 (Simulation time: 13 hr 46 min 03 sec)
Heartbeat CPU 2 instructions: 880000005 cycles: 220015214 heartbeat IPC: 4 cumulative IPC: 4 (Simulation time: 13 hr 46 min 03 sec)
Heartbeat CPU 3 instructions: 880000006 cycles: 220015910 heartbeat IPC: 4 cumulative IPC: 4 (Simulation time: 13 hr 46 min 03 sec)
Heartbeat CPU 7 instructions: 880000002 cycles: 220015919 heartbeat IPC: 4 cumulative IPC: 4 (Simulation time: 13 hr 46 min 03 sec)
Heartbeat CPU 1 instructions: 460000072 cycles: 220579694 heartbeat IPC: 1.927 cumulative IPC: 1.861 (Simulation time: 13 hr 47 min 57 sec)
Heartbeat CPU 5 instructions: 460000071 cycles: 220579740 heartbeat IPC: 1.927 cumulative IPC: 1.865 (Simulation time: 13 hr 47 min 57 sec)
Simulation finished CPU 0 instructions: 100000004 cycles: 161128718 cumulative IPC: 0.6206 (Simulation time: 13 hr 50 min 04 sec)
Heartbeat CPU 0 instructions: 150000016 cycles: 221248298 heartbeat IPC: 0.8307 cumulative IPC: 0.6206 (Simulation time: 13 hr 50 min 04 sec)
Heartbeat CPU 4 instructions: 150000019 cycles: 221248359 heartbeat IPC: 0.8315 cumulative IPC: 0.6206 (Simulation time: 13 hr 50 min 04 sec)
Simulation finished CPU 4 instructions: 100000001 cycles: 161130347 cumulative IPC: 0.6206 (Simulation time: 13 hr 50 min 04 sec)
Simulation complete CPU 7 instructions: 644490920 cycles: 161130347 cumulative IPC: 4 (Simulation time: 13 hr 50 min 04 sec)
Simulation complete CPU 6 instructions: 644493318 cycles: 161130347 cumulative IPC: 4 (Simulation time: 13 hr 50 min 04 sec)
Simulation complete CPU 5 instructions: 300692913 cycles: 161130347 cumulative IPC: 1.866 (Simulation time: 13 hr 50 min 04 sec)
Simulation complete CPU 4 instructions: 100000001 cycles: 161130347 cumulative IPC: 0.6206 (Simulation time: 13 hr 50 min 04 sec)
Simulation complete CPU 3 instructions: 644490172 cycles: 161130347 cumulative IPC: 4 (Simulation time: 13 hr 50 min 04 sec)
Simulation complete CPU 2 instructions: 644493258 cycles: 161130347 cumulative IPC: 4 (Simulation time: 13 hr 50 min 04 sec)
Simulation complete CPU 1 instructions: 300099944 cycles: 161130347 cumulative IPC: 1.862 (Simulation time: 13 hr 50 min 04 sec)
Simulation complete CPU 0 instructions: 100000474 cycles: 161130347 cumulative IPC: 0.6206 (Simulation time: 13 hr 50 min 04 sec)

ChampSim completed all CPUs

=== Simulation ===
CPU 0 runs /home/harshraj/COALESCE-Hashed-Perceptron-Cache-Replacement-Policy/simulator/traces/barnes_4t0.champsimtrace
CPU 1 runs /home/harshraj/COALESCE-Hashed-Perceptron-Cache-Replacement-Policy/simulator/traces/barnes_4t1.champsimtrace
CPU 2 runs /home/harshraj/COALESCE-Hashed-Perceptron-Cache-Replacement-Policy/simulator/traces/barnes_4t2.champsimtrace
CPU 3 runs /home/harshraj/COALESCE-Hashed-Perceptron-Cache-Replacement-Policy/simulator/traces/barnes_4t3.champsimtrace
CPU 4 runs /home/harshraj/COALESCE-Hashed-Perceptron-Cache-Replacement-Policy/simulator/traces/barnes_4t0.champsimtrace
CPU 5 runs /home/harshraj/COALESCE-Hashed-Perceptron-Cache-Replacement-Policy/simulator/traces/barnes_4t1.champsimtrace
CPU 6 runs /home/harshraj/COALESCE-Hashed-Perceptron-Cache-Replacement-Policy/simulator/traces/barnes_4t2.champsimtrace
CPU 7 runs /home/harshraj/COALESCE-Hashed-Perceptron-Cache-Replacement-Policy/simulator/traces/barnes_4t3.champsimtrace

Total Simulation Statistics (not including warmup)

CPU 7 cumulative IPC: 4 instructions: 644490920 cycles: 161130347
CPU 7 Branch Prediction Accuracy: -% MPKI: 0 Average ROB Occupancy at Mispredict: -
Branch type MPKI
BRANCH_DIRECT_JUMP: 0
BRANCH_INDIRECT: 0
BRANCH_CONDITIONAL: 0
BRANCH_DIRECT_CALL: 0
BRANCH_INDIRECT_CALL: 0
BRANCH_RETURN: 0


CPU 6 cumulative IPC: 4 instructions: 644493318 cycles: 161130347
CPU 6 Branch Prediction Accuracy: -% MPKI: 0 Average ROB Occupancy at Mispredict: -
Branch type MPKI
BRANCH_DIRECT_JUMP: 0
BRANCH_INDIRECT: 0
BRANCH_CONDITIONAL: 0
BRANCH_DIRECT_CALL: 0
BRANCH_INDIRECT_CALL: 0
BRANCH_RETURN: 0


CPU 5 cumulative IPC: 1.866 instructions: 300692913 cycles: 161130347
CPU 5 Branch Prediction Accuracy: -% MPKI: 0 Average ROB Occupancy at Mispredict: -
Branch type MPKI
BRANCH_DIRECT_JUMP: 0
BRANCH_INDIRECT: 0
BRANCH_CONDITIONAL: 0
BRANCH_DIRECT_CALL: 0
BRANCH_INDIRECT_CALL: 0
BRANCH_RETURN: 0


CPU 4 cumulative IPC: 0.6206 instructions: 100000001 cycles: 161130347
CPU 4 Branch Prediction Accuracy: -% MPKI: 0 Average ROB Occupancy at Mispredict: -
Branch type MPKI
BRANCH_DIRECT_JUMP: 0
BRANCH_INDIRECT: 0
BRANCH_CONDITIONAL: 0
BRANCH_DIRECT_CALL: 0
BRANCH_INDIRECT_CALL: 0
BRANCH_RETURN: 0


CPU 3 cumulative IPC: 4 instructions: 644490172 cycles: 161130347
CPU 3 Branch Prediction Accuracy: -% MPKI: 0 Average ROB Occupancy at Mispredict: -
Branch type MPKI
BRANCH_DIRECT_JUMP: 0
BRANCH_INDIRECT: 0
BRANCH_CONDITIONAL: 0
BRANCH_DIRECT_CALL: 0
BRANCH_INDIRECT_CALL: 0
BRANCH_RETURN: 0


CPU 2 cumulative IPC: 4 instructions: 644493258 cycles: 161130347
CPU 2 Branch Prediction Accuracy: -% MPKI: 0 Average ROB Occupancy at Mispredict: -
Branch type MPKI
BRANCH_DIRECT_JUMP: 0
BRANCH_INDIRECT: 0
BRANCH_CONDITIONAL: 0
BRANCH_DIRECT_CALL: 0
BRANCH_INDIRECT_CALL: 0
BRANCH_RETURN: 0


CPU 1 cumulative IPC: 1.862 instructions: 300099944 cycles: 161130347
CPU 1 Branch Prediction Accuracy: -% MPKI: 0 Average ROB Occupancy at Mispredict: -
Branch type MPKI
BRANCH_DIRECT_JUMP: 0
BRANCH_INDIRECT: 0
BRANCH_CONDITIONAL: 0
BRANCH_DIRECT_CALL: 0
BRANCH_INDIRECT_CALL: 0
BRANCH_RETURN: 0


CPU 0 cumulative IPC: 0.6206 instructions: 100000474 cycles: 161130347
CPU 0 Branch Prediction Accuracy: -% MPKI: 0 Average ROB Occupancy at Mispredict: -
Branch type MPKI
BRANCH_DIRECT_JUMP: 0
BRANCH_INDIRECT: 0
BRANCH_CONDITIONAL: 0
BRANCH_DIRECT_CALL: 0
BRANCH_INDIRECT_CALL: 0
BRANCH_RETURN: 0

cpu7->cpu7_STLB TOTAL        ACCESS:         18 HIT:          8 MISS:         10 MSHR_MERGE:          0
cpu7->cpu7_STLB LOAD         ACCESS:         18 HIT:          8 MISS:         10 MSHR_MERGE:          0
cpu7->cpu7_STLB RFO          ACCESS:          0 HIT:          0 MISS:          0 MSHR_MERGE:          0
cpu7->cpu7_STLB PREFETCH     ACCESS:          0 HIT:          0 MISS:          0 MSHR_MERGE:          0
cpu7->cpu7_STLB WRITE        ACCESS:          0 HIT:          0 MISS:          0 MSHR_MERGE:          0
cpu7->cpu7_STLB TRANSLATION  ACCESS:          0 HIT:          0 MISS:          0 MSHR_MERGE:          0
cpu7->cpu7_STLB PREFETCH REQUESTED:          0 ISSUED:          0 USEFUL:          0 USELESS:          0
cpu7->cpu7_STLB AVERAGE MISS LATENCY: 655.7 cycles
cpu7_STLB COHERENCE INVALIDATIONS:          0
cpu7_STLB COHERENCE WRITE-HIT OTHER-SHARER EVENTS:          0
cpu7->cpu7_L2C TOTAL        ACCESS:         58 HIT:          4 MISS:         54 MSHR_MERGE:          0
cpu7->cpu7_L2C LOAD         ACCESS:         38 HIT:          4 MISS:         34 MSHR_MERGE:          0
cpu7->cpu7_L2C RFO          ACCESS:          0 HIT:          0 MISS:          0 MSHR_MERGE:          0
cpu7->cpu7_L2C PREFETCH     ACCESS:          0 HIT:          0 MISS:          0 MSHR_MERGE:          0
cpu7->cpu7_L2C WRITE        ACCESS:          0 HIT:          0 MISS:          0 MSHR_MERGE:          0
cpu7->cpu7_L2C TRANSLATION  ACCESS:         20 HIT:          0 MISS:         20 MSHR_MERGE:          0
cpu7->cpu7_L2C PREFETCH REQUESTED:          0 ISSUED:          0 USEFUL:          0 USELESS:          0
cpu7->cpu7_L2C AVERAGE MISS LATENCY: 241 cycles
cpu7_L2C COHERENCE INVALIDATIONS:          0
cpu7_L2C COHERENCE WRITE-HIT OTHER-SHARER EVENTS:          0
cpu7->cpu7_L1I TOTAL        ACCESS:   92522804 HIT:   92522751 MISS:         53 MSHR_MERGE:         15
cpu7->cpu7_L1I LOAD         ACCESS:   92522804 HIT:   92522751 MISS:         53 MSHR_MERGE:         15
cpu7->cpu7_L1I RFO          ACCESS:          0 HIT:          0 MISS:          0 MSHR_MERGE:          0
cpu7->cpu7_L1I PREFETCH     ACCESS:          0 HIT:          0 MISS:          0 MSHR_MERGE:          0
cpu7->cpu7_L1I WRITE        ACCESS:          0 HIT:          0 MISS:          0 MSHR_MERGE:          0
cpu7->cpu7_L1I TRANSLATION  ACCESS:          0 HIT:          0 MISS:          0 MSHR_MERGE:          0
cpu7->cpu7_L1I PREFETCH REQUESTED:          0 ISSUED:          0 USEFUL:          0 USELESS:          0
cpu7->cpu7_L1I AVERAGE MISS LATENCY: 248.3 cycles
cpu7_L1I COHERENCE INVALIDATIONS:          0
cpu7_L1I COHERENCE WRITE-HIT OTHER-SHARER EVENTS:          0
cpu7->cpu7_L1D TOTAL        ACCESS:         20 HIT:          0 MISS:         20 MSHR_MERGE:          0
cpu7->cpu7_L1D LOAD         ACCESS:          0 HIT:          0 MISS:          0 MSHR_MERGE:          0
cpu7->cpu7_L1D RFO          ACCESS:          0 HIT:          0 MISS:          0 MSHR_MERGE:          0
cpu7->cpu7_L1D PREFETCH     ACCESS:          0 HIT:          0 MISS:          0 MSHR_MERGE:          0
cpu7->cpu7_L1D WRITE        ACCESS:          0 HIT:          0 MISS:          0 MSHR_MERGE:          0
cpu7->cpu7_L1D TRANSLATION  ACCESS:         20 HIT:          0 MISS:         20 MSHR_MERGE:          0
cpu7->cpu7_L1D PREFETCH REQUESTED:          0 ISSUED:          0 USEFUL:          0 USELESS:          0
cpu7->cpu7_L1D AVERAGE MISS LATENCY: 201.8 cycles
cpu7_L1D COHERENCE INVALIDATIONS:          0
cpu7_L1D COHERENCE WRITE-HIT OTHER-SHARER EVENTS:          0
cpu7->cpu7_ITLB TOTAL        ACCESS:   74577147 HIT:   74577114 MISS:         33 MSHR_MERGE:         15
cpu7->cpu7_ITLB LOAD         ACCESS:   74577147 HIT:   74577114 MISS:         33 MSHR_MERGE:         15
cpu7->cpu7_ITLB RFO          ACCESS:          0 HIT:          0 MISS:          0 MSHR_MERGE:          0
cpu7->cpu7_ITLB PREFETCH     ACCESS:          0 HIT:          0 MISS:          0 MSHR_MERGE:          0
cpu7->cpu7_ITLB WRITE        ACCESS:          0 HIT:          0 MISS:          0 MSHR_MERGE:          0
cpu7->cpu7_ITLB TRANSLATION  ACCESS:          0 HIT:          0 MISS:          0 MSHR_MERGE:          0
cpu7->cpu7_ITLB PREFETCH REQUESTED:          0 ISSUED:          0 USEFUL:          0 USELESS:          0
cpu7->cpu7_ITLB AVERAGE MISS LATENCY: 368.8 cycles
cpu7_ITLB COHERENCE INVALIDATIONS:          0
cpu7_ITLB COHERENCE WRITE-HIT OTHER-SHARER EVENTS:          0
cpu7_DTLB COHERENCE INVALIDATIONS:          0
cpu7_DTLB COHERENCE WRITE-HIT OTHER-SHARER EVENTS:          0
cpu6->cpu6_STLB TOTAL        ACCESS:         17 HIT:          7 MISS:         10 MSHR_MERGE:          0
cpu6->cpu6_STLB LOAD         ACCESS:         17 HIT:          7 MISS:         10 MSHR_MERGE:          0
cpu6->cpu6_STLB RFO          ACCESS:          0 HIT:          0 MISS:          0 MSHR_MERGE:          0
cpu6->cpu6_STLB PREFETCH     ACCESS:          0 HIT:          0 MISS:          0 MSHR_MERGE:          0
cpu6->cpu6_STLB WRITE        ACCESS:          0 HIT:          0 MISS:          0 MSHR_MERGE:          0
cpu6->cpu6_STLB TRANSLATION  ACCESS:          0 HIT:          0 MISS:          0 MSHR_MERGE:          0
cpu6->cpu6_STLB PREFETCH REQUESTED:          0 ISSUED:          0 USEFUL:          0 USELESS:          0
cpu6->cpu6_STLB AVERAGE MISS LATENCY: 630.2 cycles
cpu6_STLB COHERENCE INVALIDATIONS:          0
cpu6_STLB COHERENCE WRITE-HIT OTHER-SHARER EVENTS:          0
cpu6->cpu6_L2C TOTAL        ACCESS:         58 HIT:          4 MISS:         54 MSHR_MERGE:          0
cpu6->cpu6_L2C LOAD         ACCESS:         38 HIT:          4 MISS:         34 MSHR_MERGE:          0
cpu6->cpu6_L2C RFO          ACCESS:          0 HIT:          0 MISS:          0 MSHR_MERGE:          0
cpu6->cpu6_L2C PREFETCH     ACCESS:          0 HIT:          0 MISS:          0 MSHR_MERGE:          0
cpu6->cpu6_L2C WRITE        ACCESS:          0 HIT:          0 MISS:          0 MSHR_MERGE:          0
cpu6->cpu6_L2C TRANSLATION  ACCESS:         20 HIT:          0 MISS:         20 MSHR_MERGE:          0
cpu6->cpu6_L2C PREFETCH REQUESTED:          0 ISSUED:          0 USEFUL:          0 USELESS:          0
cpu6->cpu6_L2C AVERAGE MISS LATENCY: 185.2 cycles
cpu6_L2C COHERENCE INVALIDATIONS:          0
cpu6_L2C COHERENCE WRITE-HIT OTHER-SHARER EVENTS:          0
cpu6->cpu6_L1I TOTAL        ACCESS:   93957468 HIT:   93957413 MISS:         55 MSHR_MERGE:         17
cpu6->cpu6_L1I LOAD         ACCESS:   93957468 HIT:   93957413 MISS:         55 MSHR_MERGE:         17
cpu6->cpu6_L1I RFO          ACCESS:          0 HIT:          0 MISS:          0 MSHR_MERGE:          0
cpu6->cpu6_L1I PREFETCH     ACCESS:          0 HIT:          0 MISS:          0 MSHR_MERGE:          0
cpu6->cpu6_L1I WRITE        ACCESS:          0 HIT:          0 MISS:          0 MSHR_MERGE:          0
cpu6->cpu6_L1I TRANSLATION  ACCESS:          0 HIT:          0 MISS:          0 MSHR_MERGE:          0
cpu6->cpu6_L1I PREFETCH REQUESTED:          0 ISSUED:          0 USEFUL:          0 USELESS:          0
cpu6->cpu6_L1I AVERAGE MISS LATENCY: 165.2 cycles
cpu6_L1I COHERENCE INVALIDATIONS:          0
cpu6_L1I COHERENCE WRITE-HIT OTHER-SHARER EVENTS:          0
cpu6->cpu6_L1D TOTAL        ACCESS:         20 HIT:          0 MISS:         20 MSHR_MERGE:          0
cpu6->cpu6_L1D LOAD         ACCESS:          0 HIT:          0 MISS:          0 MSHR_MERGE:          0
cpu6->cpu6_L1D RFO          ACCESS:          0 HIT:          0 MISS:          0 MSHR_MERGE:          0
cpu6->cpu6_L1D PREFETCH     ACCESS:          0 HIT:          0 MISS:          0 MSHR_MERGE:          0
cpu6->cpu6_L1D WRITE        ACCESS:          0 HIT:          0 MISS:          0 MSHR_MERGE:          0
cpu6->cpu6_L1D TRANSLATION  ACCESS:         20 HIT:          0 MISS:         20 MSHR_MERGE:          0
cpu6->cpu6_L1D PREFETCH REQUESTED:          0 ISSUED:          0 USEFUL:          0 USELESS:          0
cpu6->cpu6_L1D AVERAGE MISS LATENCY: 209.1 cycles
cpu6_L1D COHERENCE INVALIDATIONS:          0
[...]
cpu2_STLB COHERENCE WRITE-HIT OTHER-SHARER EVENTS:          0
cpu2->cpu2_L2C TOTAL        ACCESS:         58 HIT:          4 MISS:         54 MSHR_MERGE:          0
cpu2->cpu2_L2C LOAD         ACCESS:         38 HIT:          4 MISS:         34 MSHR_MERGE:          0
cpu2->cpu2_L2C RFO          ACCESS:          0 HIT:          0 MISS:          0 MSHR_MERGE:          0
cpu2->cpu2_L2C PREFETCH     ACCESS:          0 HIT:          0 MISS:          0 MSHR_MERGE:          0
cpu2->cpu2_L2C WRITE        ACCESS:          0 HIT:          0 MISS:          0 MSHR_MERGE:          0
cpu2->cpu2_L2C TRANSLATION  ACCESS:         20 HIT:          0 MISS:         20 MSHR_MERGE:          0
cpu2->cpu2_L2C PREFETCH REQUESTED:          0 ISSUED:          0 USEFUL:          0 USELESS:          0
cpu2->cpu2_L2C AVERAGE MISS LATENCY: 196.5 cycles
cpu2_L2C COHERENCE INVALIDATIONS:          0
cpu2_L2C COHERENCE WRITE-HIT OTHER-SHARER EVENTS:          0
cpu2->cpu2_L1I TOTAL        ACCESS:   93108413 HIT:   93108360 MISS:         53 MSHR_MERGE:         15
cpu2->cpu2_L1I LOAD         ACCESS:   93108413 HIT:   93108360 MISS:         53 MSHR_MERGE:         15
cpu2->cpu2_L1I RFO          ACCESS:          0 HIT:          0 MISS:          0 MSHR_MERGE:          0
cpu2->cpu2_L1I PREFETCH     ACCESS:          0 HIT:          0 MISS:          0 MSHR_MERGE:          0
cpu2->cpu2_L1I WRITE        ACCESS:          0 HIT:          0 MISS:          0 MSHR_MERGE:          0
cpu2->cpu2_L1I TRANSLATION  ACCESS:          0 HIT:          0 MISS:          0 MSHR_MERGE:          0
cpu2->cpu2_L1I PREFETCH REQUESTED:          0 ISSUED:          0 USEFUL:          0 USELESS:          0
cpu2->cpu2_L1I AVERAGE MISS LATENCY: 179.1 cycles
cpu2_L1I COHERENCE INVALIDATIONS:          0
cpu2_L1I COHERENCE WRITE-HIT OTHER-SHARER EVENTS:          0
cpu2->cpu2_L1D TOTAL        ACCESS:         20 HIT:          0 MISS:         20 MSHR_MERGE:          0
cpu2->cpu2_L1D LOAD         ACCESS:          0 HIT:          0 MISS:          0 MSHR_MERGE:          0
cpu2->cpu2_L1D RFO          ACCESS:          0 HIT:          0 MISS:          0 MSHR_MERGE:          0
cpu2->cpu2_L1D PREFETCH     ACCESS:          0 HIT:          0 MISS:          0 MSHR_MERGE:          0
cpu2->cpu2_L1D WRITE        ACCESS:          0 HIT:          0 MISS:          0 MSHR_MERGE:          0
cpu2->cpu2_L1D TRANSLATION  ACCESS:         20 HIT:          0 MISS:         20 MSHR_MERGE:          0
cpu2->cpu2_L1D PREFETCH REQUESTED:          0 ISSUED:          0 USEFUL:          0 USELESS:          0
cpu2->cpu2_L1D AVERAGE MISS LATENCY: 213.2 cycles
cpu2_L1D COHERENCE INVALIDATIONS:          0
cpu2_L1D COHERENCE WRITE-HIT OTHER-SHARER EVENTS:          0
cpu2->cpu2_ITLB TOTAL        ACCESS:   74375405 HIT:   74375376 MISS:         29 MSHR_MERGE:         12
cpu2->cpu2_ITLB LOAD         ACCESS:   74375405 HIT:   74375376 MISS:         29 MSHR_MERGE:         12
cpu2->cpu2_ITLB RFO          ACCESS:          0 HIT:          0 MISS:          0 MSHR_MERGE:          0
cpu2->cpu2_ITLB PREFETCH     ACCESS:          0 HIT:          0 MISS:          0 MSHR_MERGE:          0
cpu2->cpu2_ITLB WRITE        ACCESS:          0 HIT:          0 MISS:          0 MSHR_MERGE:          0
cpu2->cpu2_ITLB TRANSLATION  ACCESS:          0 HIT:          0 MISS:          0 MSHR_MERGE:          0
cpu2->cpu2_ITLB PREFETCH REQUESTED:          0 ISSUED:          0 USEFUL:          0 USELESS:          0
cpu2->cpu2_ITLB AVERAGE MISS LATENCY: 380.1 cycles
cpu2_ITLB COHERENCE INVALIDATIONS:          0
cpu2_ITLB COHERENCE WRITE-HIT OTHER-SHARER EVENTS:          0
cpu2_DTLB COHERENCE INVALIDATIONS:          0
cpu2_DTLB COHERENCE WRITE-HIT OTHER-SHARER EVENTS:          0
cpu1->cpu1_STLB TOTAL        ACCESS:    1122775 HIT:    1122607 MISS:        168 MSHR_MERGE:          0
cpu1->cpu1_STLB LOAD         ACCESS:    1122775 HIT:    1122607 MISS:        168 MSHR_MERGE:          0
cpu1->cpu1_STLB RFO          ACCESS:          0 HIT:          0 MISS:          0 MSHR_MERGE:          0
cpu1->cpu1_STLB PREFETCH     ACCESS:          0 HIT:          0 MISS:          0 MSHR_MERGE:          0
cpu1->cpu1_STLB WRITE        ACCESS:          0 HIT:          0 MISS:          0 MSHR_MERGE:          0
cpu1->cpu1_STLB TRANSLATION  ACCESS:          0 HIT:          0 MISS:          0 MSHR_MERGE:          0
cpu1->cpu1_STLB PREFETCH REQUESTED:          0 ISSUED:          0 USEFUL:          0 USELESS:          0
cpu1->cpu1_STLB AVERAGE MISS LATENCY: 608 cycles
cpu1_STLB COHERENCE INVALIDATIONS:          0
cpu1_STLB COHERENCE WRITE-HIT OTHER-SHARER EVENTS:          0
cpu1->cpu1_L2C TOTAL        ACCESS:    3344616 HIT:    3056615 MISS:     288001 MSHR_MERGE:          0
cpu1->cpu1_L2C LOAD         ACCESS:    3344419 HIT:    3056615 MISS:     287804 MSHR_MERGE:          0
cpu1->cpu1_L2C RFO          ACCESS:          0 HIT:          0 MISS:          0 MSHR_MERGE:          0
cpu1->cpu1_L2C PREFETCH     ACCESS:          0 HIT:          0 MISS:          0 MSHR_MERGE:          0
cpu1->cpu1_L2C WRITE        ACCESS:          0 HIT:          0 MISS:          0 MSHR_MERGE:          0
cpu1->cpu1_L2C TRANSLATION  ACCESS:        197 HIT:          0 MISS:        197 MSHR_MERGE:          0
cpu1->cpu1_L2C PREFETCH REQUESTED:          0 ISSUED:          0 USEFUL:          0 USELESS:          0
cpu1->cpu1_L2C AVERAGE MISS LATENCY: 129.1 cycles
cpu1_L2C COHERENCE INVALIDATIONS:          0
cpu1_L2C COHERENCE WRITE-HIT OTHER-SHARER EVENTS:          0
cpu1->cpu1_L1I TOTAL        ACCESS:   63082850 HIT:   59682534 MISS:    3400316 MSHR_MERGE:      55897
cpu1->cpu1_L1I LOAD         ACCESS:   63082850 HIT:   59682534 MISS:    3400316 MSHR_MERGE:      55897
cpu1->cpu1_L1I RFO          ACCESS:          0 HIT:          0 MISS:          0 MSHR_MERGE:          0
cpu1->cpu1_L1I PREFETCH     ACCESS:          0 HIT:          0 MISS:          0 MSHR_MERGE:          0
cpu1->cpu1_L1I WRITE        ACCESS:          0 HIT:          0 MISS:          0 MSHR_MERGE:          0
cpu1->cpu1_L1I TRANSLATION  ACCESS:          0 HIT:          0 MISS:          0 MSHR_MERGE:          0
cpu1->cpu1_L1I PREFETCH REQUESTED:          0 ISSUED:          0 USEFUL:          0 USELESS:          0
cpu1->cpu1_L1I AVERAGE MISS LATENCY: 18.19 cycles
cpu1_L1I COHERENCE INVALIDATIONS:          0
cpu1_L1I COHERENCE WRITE-HIT OTHER-SHARER EVENTS:          0
cpu1->cpu1_L1D TOTAL        ACCESS:        339 HIT:        142 MISS:        197 MSHR_MERGE:          0
cpu1->cpu1_L1D LOAD         ACCESS:          0 HIT:          0 MISS:          0 MSHR_MERGE:          0
cpu1->cpu1_L1D RFO          ACCESS:          0 HIT:          0 MISS:          0 MSHR_MERGE:          0
cpu1->cpu1_L1D PREFETCH     ACCESS:          0 HIT:          0 MISS:          0 MSHR_MERGE:          0
cpu1->cpu1_L1D WRITE        ACCESS:          0 HIT:          0 MISS:          0 MSHR_MERGE:          0
cpu1->cpu1_L1D TRANSLATION  ACCESS:        339 HIT:        142 MISS:        197 MSHR_MERGE:          0
cpu1->cpu1_L1D PREFETCH REQUESTED:          0 ISSUED:          0 USEFUL:          0 USELESS:          0
cpu1->cpu1_L1D AVERAGE MISS LATENCY: 210.4 cycles
cpu1_L1D COHERENCE INVALIDATIONS:          0
cpu1_L1D COHERENCE WRITE-HIT OTHER-SHARER EVENTS:          0
cpu1->cpu1_ITLB TOTAL        ACCESS:   60634005 HIT:   59450796 MISS:    1183209 MSHR_MERGE:      60434
cpu1->cpu1_ITLB LOAD         ACCESS:   60634005 HIT:   59450796 MISS:    1183209 MSHR_MERGE:      60434
cpu1->cpu1_ITLB RFO          ACCESS:          0 HIT:          0 MISS:          0 MSHR_MERGE:          0
cpu1->cpu1_ITLB PREFETCH     ACCESS:          0 HIT:          0 MISS:          0 MSHR_MERGE:          0
cpu1->cpu1_ITLB WRITE        ACCESS:          0 HIT:          0 MISS:          0 MSHR_MERGE:          0
cpu1->cpu1_ITLB TRANSLATION  ACCESS:          0 HIT:          0 MISS:          0 MSHR_MERGE:          0
cpu1->cpu1_ITLB PREFETCH REQUESTED:          0 ISSUED:          0 USEFUL:          0 USELESS:          0
cpu1->cpu1_ITLB AVERAGE MISS LATENCY: 4.091 cycles
cpu1_ITLB COHERENCE INVALIDATIONS:          0
cpu1_ITLB COHERENCE WRITE-HIT OTHER-SHARER EVENTS:          0
cpu1_DTLB COHERENCE INVALIDATIONS:          0
cpu1_DTLB COHERENCE WRITE-HIT OTHER-SHARER EVENTS:          0
cpu0->cpu0_STLB TOTAL        ACCESS:    3021204 HIT:    3008260 MISS:      12944 MSHR_MERGE:          0
cpu0->cpu0_STLB LOAD         ACCESS:    3021204 HIT:    3008260 MISS:      12944 MSHR_MERGE:          0
cpu0->cpu0_STLB RFO          ACCESS:          0 HIT:          0 MISS:          0 MSHR_MERGE:          0
cpu0->cpu0_STLB PREFETCH     ACCESS:          0 HIT:          0 MISS:          0 MSHR_MERGE:          0
cpu0->cpu0_STLB WRITE        ACCESS:          0 HIT:          0 MISS:          0 MSHR_MERGE:          0
cpu0->cpu0_STLB TRANSLATION  ACCESS:          0 HIT:          0 MISS:          0 MSHR_MERGE:          0
cpu0->cpu0_STLB PREFETCH REQUESTED:          0 ISSUED:          0 USEFUL:          0 USELESS:          0
cpu0->cpu0_STLB AVERAGE MISS LATENCY: 278 cycles
cpu0_STLB COHERENCE INVALIDATIONS:          0
cpu0_STLB COHERENCE WRITE-HIT OTHER-SHARER EVENTS:          0
cpu0->cpu0_L2C TOTAL        ACCESS:    4710074 HIT:    4300601 MISS:     409473 MSHR_MERGE:          0
cpu0->cpu0_L2C LOAD         ACCESS:    3759285 HIT:    3415479 MISS:     343806 MSHR_MERGE:          0
cpu0->cpu0_L2C RFO          ACCESS:     343438 HIT:     292082 MISS:      51356 MSHR_MERGE:          0
cpu0->cpu0_L2C PREFETCH     ACCESS:          0 HIT:          0 MISS:          0 MSHR_MERGE:          0
cpu0->cpu0_L2C WRITE        ACCESS:     579144 HIT:     578857 MISS:        287 MSHR_MERGE:          0
cpu0->cpu0_L2C TRANSLATION  ACCESS:      28207 HIT:      14183 MISS:      14024 MSHR_MERGE:          0
cpu0->cpu0_L2C PREFETCH REQUESTED:          0 ISSUED:          0 USEFUL:          0 USELESS:          0
cpu0->cpu0_L2C AVERAGE MISS LATENCY: 145 cycles
cpu0_L2C COHERENCE INVALIDATIONS:          0
cpu0_L2C COHERENCE WRITE-HIT OTHER-SHARER EVENTS:          0
cpu0->cpu0_L1I TOTAL        ACCESS:   25956124 HIT:   25956108 MISS:         16 MSHR_MERGE:          3
cpu0->cpu0_L1I LOAD         ACCESS:   25956124 HIT:   25956108 MISS:         16 MSHR_MERGE:          3
cpu0->cpu0_L1I RFO          ACCESS:          0 HIT:          0 MISS:          0 MSHR_MERGE:          0
cpu0->cpu0_L1I PREFETCH     ACCESS:          0 HIT:          0 MISS:          0 MSHR_MERGE:          0
cpu0->cpu0_L1I WRITE        ACCESS:          0 HIT:          0 MISS:          0 MSHR_MERGE:          0
cpu0->cpu0_L1I TRANSLATION  ACCESS:          0 HIT:          0 MISS:          0 MSHR_MERGE:          0
cpu0->cpu0_L1I PREFETCH REQUESTED:          0 ISSUED:          0 USEFUL:          0 USELESS:          0
cpu0->cpu0_L1I AVERAGE MISS LATENCY: 213.4 cycles
cpu0_L1I COHERENCE INVALIDATIONS:          0
cpu0_L1I COHERENCE WRITE-HIT OTHER-SHARER EVENTS:          0
cpu0->cpu0_L1D TOTAL        ACCESS:   63849933 HIT:   59640089 MISS:    4209844 MSHR_MERGE:      78631
cpu0->cpu0_L1D LOAD         ACCESS:   16916117 HIT:   13147834 MISS:    3768283 MSHR_MERGE:       8968
cpu0->cpu0_L1D RFO          ACCESS:          0 HIT:          0 MISS:          0 MSHR_MERGE:          0
cpu0->cpu0_L1D PREFETCH     ACCESS:          0 HIT:          0 MISS:          0 MSHR_MERGE:          0
cpu0->cpu0_L1D WRITE        ACCESS:   46902454 HIT:   46489108 MISS:     413346 MSHR_MERGE:      69655
cpu0->cpu0_L1D TRANSLATION  ACCESS:      31362 HIT:       3147 MISS:      28215 MSHR_MERGE:          8
cpu0->cpu0_L1D PREFETCH REQUESTED:          0 ISSUED:          0 USEFUL:          0 USELESS:          0
cpu0->cpu0_L1D AVERAGE MISS LATENCY: 21.47 cycles
cpu0_L1D COHERENCE INVALIDATIONS:          0
cpu0_L1D COHERENCE WRITE-HIT OTHER-SHARER EVENTS:          0
cpu0->cpu0_ITLB TOTAL        ACCESS:   23714308 HIT:   23714308 MISS:          0 MSHR_MERGE:          0
cpu0->cpu0_ITLB LOAD         ACCESS:   23714308 HIT:   23714308 MISS:          0 MSHR_MERGE:          0
cpu0->cpu0_ITLB RFO          ACCESS:          0 HIT:          0 MISS:          0 MSHR_MERGE:          0
cpu0->cpu0_ITLB PREFETCH     ACCESS:          0 HIT:          0 MISS:          0 MSHR_MERGE:          0
cpu0->cpu0_ITLB WRITE        ACCESS:          0 HIT:          0 MISS:          0 MSHR_MERGE:          0
cpu0->cpu0_ITLB TRANSLATION  ACCESS:          0 HIT:          0 MISS:          0 MSHR_MERGE:          0
cpu0->cpu0_ITLB PREFETCH REQUESTED:          0 ISSUED:          0 USEFUL:          0 USELESS:          0
cpu0->cpu0_ITLB AVERAGE MISS LATENCY: - cycles
cpu0_ITLB COHERENCE INVALIDATIONS:          0
cpu0_ITLB COHERENCE WRITE-HIT OTHER-SHARER EVENTS:          0
cpu0->cpu0_DTLB TOTAL        ACCESS:   62013935 HIT:   58820824 MISS:    3193111 MSHR_MERGE:     171907
cpu0->cpu0_DTLB LOAD         ACCESS:   62013935 HIT:   58820824 MISS:    3193111 MSHR_MERGE:     171907
cpu0->cpu0_DTLB RFO          ACCESS:          0 HIT:          0 MISS:          0 MSHR_MERGE:          0
cpu0->cpu0_DTLB PREFETCH     ACCESS:          0 HIT:          0 MISS:          0 MSHR_MERGE:          0
cpu0->cpu0_DTLB WRITE        ACCESS:          0 HIT:          0 MISS:          0 MSHR_MERGE:          0
cpu0->cpu0_DTLB TRANSLATION  ACCESS:          0 HIT:          0 MISS:          0 MSHR_MERGE:          0
cpu0->cpu0_DTLB PREFETCH REQUESTED:          0 ISSUED:          0 USEFUL:          0 USELESS:          0
cpu0->cpu0_DTLB AVERAGE MISS LATENCY: 5.195 cycles
cpu0_DTLB COHERENCE INVALIDATIONS:          0
cpu0_DTLB COHERENCE WRITE-HIT OTHER-SHARER EVENTS:          0
cpu0->LLC TOTAL        ACCESS:     512531 HIT:     192510 MISS:     320021 MSHR_MERGE:      39125
cpu0->LLC LOAD         ACCESS:     343806 HIT:     128204 MISS:     215602 MSHR_MERGE:      32663
cpu0->LLC RFO          ACCESS:      51356 HIT:      21016 MISS:      30340 MSHR_MERGE:       6462
cpu0->LLC PREFETCH     ACCESS:          0 HIT:          0 MISS:          0 MSHR_MERGE:          0
cpu0->LLC WRITE        ACCESS:     103345 HIT:      43225 MISS:      60120 MSHR_MERGE:          0
cpu0->LLC TRANSLATION  ACCESS:      14024 HIT:         65 MISS:      13959 MSHR_MERGE:          0
cpu0->LLC PREFETCH REQUESTED:          0 ISSUED:          0 USEFUL:          0 USELESS:          0
cpu0->LLC AVERAGE MISS LATENCY: 691.8 cycles
cpu1->LLC TOTAL        ACCESS:     288001 HIT:     107705 MISS:     180296 MSHR_MERGE:      30304
cpu1->LLC LOAD         ACCESS:     287804 HIT:     107705 MISS:     180099 MSHR_MERGE:      30304
cpu1->LLC RFO          ACCESS:          0 HIT:          0 MISS:          0 MSHR_MERGE:          0
cpu1->LLC PREFETCH     ACCESS:          0 HIT:          0 MISS:          0 MSHR_MERGE:          0
cpu1->LLC WRITE        ACCESS:          0 HIT:          0 MISS:          0 MSHR_MERGE:          0
cpu1->LLC TRANSLATION  ACCESS:        197 HIT:          0 MISS:        197 MSHR_MERGE:          0
cpu1->LLC PREFETCH REQUESTED:          0 ISSUED:          0 USEFUL:          0 USELESS:          0
cpu1->LLC AVERAGE MISS LATENCY: 2169 cycles
cpu2->LLC TOTAL        ACCESS:         54 HIT:          4 MISS:         50 MSHR_MERGE:          4
cpu2->LLC LOAD         ACCESS:         34 HIT:          4 MISS:         30 MSHR_MERGE:          4
cpu2->LLC RFO          ACCESS:          0 HIT:          0 MISS:          0 MSHR_MERGE:          0
cpu2->LLC PREFETCH     ACCESS:          0 HIT:          0 MISS:          0 MSHR_MERGE:          0
cpu2->LLC WRITE        ACCESS:          0 HIT:          0 MISS:          0 MSHR_MERGE:          0
cpu2->LLC TRANSLATION  ACCESS:         20 HIT:          0 MISS:         20 MSHR_MERGE:          0
cpu2->LLC PREFETCH REQUESTED:          0 ISSUED:          0 USEFUL:          0 USELESS:          0
cpu2->LLC AVERAGE MISS LATENCY: 3.78e+06 cycles
cpu3->LLC TOTAL        ACCESS:         54 HIT:          1 MISS:         53 MSHR_MERGE:         21
cpu3->LLC LOAD         ACCESS:         34 HIT:          1 MISS:         33 MSHR_MERGE:         21
cpu3->LLC RFO          ACCESS:          0 HIT:          0 MISS:          0 MSHR_MERGE:          0
cpu3->LLC PREFETCH     ACCESS:          0 HIT:          0 MISS:          0 MSHR_MERGE:          0
cpu3->LLC WRITE        ACCESS:          0 HIT:          0 MISS:          0 MSHR_MERGE:          0
cpu3->LLC TRANSLATION  ACCESS:         20 HIT:          0 MISS:         20 MSHR_MERGE:          0
cpu3->LLC PREFETCH REQUESTED:          0 ISSUED:          0 USEFUL:          0 USELESS:          0
cpu3->LLC AVERAGE MISS LATENCY: 2.16e+06 cycles
cpu4->LLC TOTAL        ACCESS:     512558 HIT:     214618 MISS:     297940 MSHR_MERGE:     188885
cpu4->LLC LOAD         ACCESS:     343603 HIT:     142151 MISS:     201452 MSHR_MERGE:     165429
cpu4->LLC RFO          ACCESS:      51395 HIT:      21339 MISS:      30056 MSHR_MERGE:      23456
cpu4->LLC PREFETCH     ACCESS:          0 HIT:          0 MISS:          0 MSHR_MERGE:          0
cpu4->LLC WRITE        ACCESS:     103372 HIT:      51064 MISS:      52308 MSHR_MERGE:          0
cpu4->LLC TRANSLATION  ACCESS:      14188 HIT:         64 MISS:      14124 MSHR_MERGE:          0
cpu4->LLC PREFETCH REQUESTED:          0 ISSUED:          0 USEFUL:          0 USELESS:          0
cpu4->LLC AVERAGE MISS LATENCY: 350.5 cycles
cpu5->LLC TOTAL        ACCESS:     288412 HIT:     118447 MISS:     169965 MSHR_MERGE:     138467
cpu5->LLC LOAD         ACCESS:     288215 HIT:     118447 MISS:     169768 MSHR_MERGE:     138467
cpu5->LLC RFO          ACCESS:          0 HIT:          0 MISS:          0 MSHR_MERGE:          0
cpu5->LLC PREFETCH     ACCESS:          0 HIT:          0 MISS:          0 MSHR_MERGE:          0
cpu5->LLC WRITE        ACCESS:          0 HIT:          0 MISS:          0 MSHR_MERGE:          0
cpu5->LLC TRANSLATION  ACCESS:        197 HIT:          0 MISS:        197 MSHR_MERGE:          0
cpu5->LLC PREFETCH REQUESTED:          0 ISSUED:          0 USEFUL:          0 USELESS:          0
cpu5->LLC AVERAGE MISS LATENCY: 649.5 cycles
cpu6->LLC TOTAL        ACCESS:         54 HIT:          4 MISS:         50 MSHR_MERGE:         26
cpu6->LLC LOAD         ACCESS:         34 HIT:          4 MISS:         30 MSHR_MERGE:         26
cpu6->LLC RFO          ACCESS:          0 HIT:          0 MISS:          0 MSHR_MERGE:          0
cpu6->LLC PREFETCH     ACCESS:          0 HIT:          0 MISS:          0 MSHR_MERGE:          0
cpu6->LLC WRITE        ACCESS:          0 HIT:          0 MISS:          0 MSHR_MERGE:          0
cpu6->LLC TRANSLATION  ACCESS:         20 HIT:          0 MISS:         20 MSHR_MERGE:          0
cpu6->LLC PREFETCH REQUESTED:          0 ISSUED:          0 USEFUL:          0 USELESS:          0
cpu6->LLC AVERAGE MISS LATENCY: 1.972e+06 cycles
cpu7->LLC TOTAL        ACCESS:         54 HIT:          1 MISS:         53 MSHR_MERGE:         11
cpu7->LLC LOAD         ACCESS:         34 HIT:          1 MISS:         33 MSHR_MERGE:         11
cpu7->LLC RFO          ACCESS:          0 HIT:          0 MISS:          0 MSHR_MERGE:          0
cpu7->LLC PREFETCH     ACCESS:          0 HIT:          0 MISS:          0 MSHR_MERGE:          0
cpu7->LLC WRITE        ACCESS:          0 HIT:          0 MISS:          0 MSHR_MERGE:          0
cpu7->LLC TRANSLATION  ACCESS:         20 HIT:          0 MISS:         20 MSHR_MERGE:          0
cpu7->LLC PREFETCH REQUESTED:          0 ISSUED:          0 USEFUL:          0 USELESS:          0
cpu7->LLC AVERAGE MISS LATENCY: 2.835e+06 cycles
LLC COHERENCE INVALIDATIONS:     120030
LLC COHERENCE WRITE-HIT OTHER-SHARER EVENTS:      90711
LLC SHARER HIST TOTAL:        9145360
LLC SHARER HIST[ 1]:        4508473  (49.298%)
LLC SHARER HIST[ 2]:         798753  ( 8.734%)
LLC SHARER HIST[ 3]:        1509218  (16.503%)
LLC SHARER HIST[ 4]:        2328916  (25.466%)

DRAM Statistics

Channel 0 RQ ROW_BUFFER_HIT:       2838
  ROW_BUFFER_MISS:     456111
  AVG DBUS CONGESTED CYCLE: 12.26
Channel 0 WQ ROW_BUFFER_HIT:      21907
  ROW_BUFFER_MISS:      91240
  FULL:        284
Channel 0 REFRESHES ISSUED:      13428

VMEM ALIASED FILLS (cross-CPU shared-page hits): 26719
