[VMEM] WARNING: physical memory size is smaller than virtual memory size.

*** ChampSim Multicore Out-of-Order Simulator ***
Warmup Instructions: 50000000
Simulation Instructions: 100000000
Number of CPUs: 8
Page size: 4096

Off-chip DRAM Size: 16 GiB Channels: 1 Width: 64-bit Data Rate: 3205 MT/s
Heartbeat CPU 3 instructions: 10000002 cycles: 2508105 heartbeat IPC: 3.987 cumulative IPC: 3.987 (Simulation time: 00 hr 10 min 52 sec)
Heartbeat CPU 2 instructions: 10000003 cycles: 2508181 heartbeat IPC: 3.987 cumulative IPC: 3.987 (Simulation time: 00 hr 10 min 52 sec)
Heartbeat CPU 6 instructions: 10000001 cycles: 2508181 heartbeat IPC: 3.987 cumulative IPC: 3.987 (Simulation time: 00 hr 10 min 52 sec)
Heartbeat CPU 7 instructions: 10000002 cycles: 2508302 heartbeat IPC: 3.987 cumulative IPC: 3.987 (Simulation time: 00 hr 10 min 52 sec)
Heartbeat CPU 4 instructions: 10000003 cycles: 2979786 heartbeat IPC: 3.356 cumulative IPC: 3.356 (Simulation time: 00 hr 12 min 44 sec)
Heartbeat CPU 0 instructions: 10000000 cycles: 2980097 heartbeat IPC: 3.356 cumulative IPC: 3.356 (Simulation time: 00 hr 12 min 44 sec)
Heartbeat CPU 1 instructions: 10000002 cycles: 4086154 heartbeat IPC: 2.447 cumulative IPC: 2.447 (Simulation time: 00 hr 17 min 01 sec)
Heartbeat CPU 5 instructions: 10000002 cycles: 4089803 heartbeat IPC: 2.445 cumulative IPC: 2.445 (Simulation time: 00 hr 17 min 02 sec)
Heartbeat CPU 3 instructions: 20000002 cycles: 5008105 heartbeat IPC: 4 cumulative IPC: 3.994 (Simulation time: 00 hr 20 min 39 sec)
Heartbeat CPU 2 instructions: 20000003 cycles: 5008181 heartbeat IPC: 4 cumulative IPC: 3.993 (Simulation time: 00 hr 20 min 39 sec)
Heartbeat CPU 6 instructions: 20000001 cycles: 5008181 heartbeat IPC: 4 cumulative IPC: 3.993 (Simulation time: 00 hr 20 min 39 sec)
Heartbeat CPU 7 instructions: 20000002 cycles: 5008302 heartbeat IPC: 4 cumulative IPC: 3.993 (Simulation time: 00 hr 20 min 39 sec)
Heartbeat CPU 3 instructions: 30000002 cycles: 7508105 heartbeat IPC: 4 cumulative IPC: 3.996 (Simulation time: 00 hr 30 min 14 sec)
Heartbeat CPU 2 instructions: 30000003 cycles: 7508181 heartbeat IPC: 4 cumulative IPC: 3.996 (Simulation time: 00 hr 30 min 14 sec)
Heartbeat CPU 6 instructions: 30000001 cycles: 7508181 heartbeat IPC: 4 cumulative IPC: 3.996 (Simulation time: 00 hr 30 min 14 sec)
Heartbeat CPU 7 instructions: 30000002 cycles: 7508302 heartbeat IPC: 4 cumulative IPC: 3.996 (Simulation time: 00 hr 30 min 14 sec)
Heartbeat CPU 1 instructions: 20000004 cycles: 7760335 heartbeat IPC: 2.722 cumulative IPC: 2.577 (Simulation time: 00 hr 31 min 12 sec)
Heartbeat CPU 5 instructions: 20000004 cycles: 7778316 heartbeat IPC: 2.711 cumulative IPC: 2.571 (Simulation time: 00 hr 31 min 17 sec)
Heartbeat CPU 3 instructions: 40000002 cycles: 10008105 heartbeat IPC: 4 cumulative IPC: 3.997 (Simulation time: 00 hr 40 min 01 sec)
Heartbeat CPU 2 instructions: 40000003 cycles: 10008181 heartbeat IPC: 4 cumulative IPC: 3.997 (Simulation time: 00 hr 40 min 01 sec)
Heartbeat CPU 6 instructions: 40000001 cycles: 10008181 heartbeat IPC: 4 cumulative IPC: 3.997 (Simulation time: 00 hr 40 min 01 sec)
Heartbeat CPU 7 instructions: 40000002 cycles: 10008302 heartbeat IPC: 4 cumulative IPC: 3.997 (Simulation time: 00 hr 40 min 01 sec)
Heartbeat CPU 1 instructions: 30000005 cycles: 11456866 heartbeat IPC: 2.705 cumulative IPC: 2.619 (Simulation time: 00 hr 45 min 24 sec)
Heartbeat CPU 5 instructions: 30000005 cycles: 11489515 heartbeat IPC: 2.695 cumulative IPC: 2.611 (Simulation time: 00 hr 45 min 31 sec)
Heartbeat CPU 3 instructions: 50000002 cycles: 12508105 heartbeat IPC: 4 cumulative IPC: 3.997 (Simulation time: 00 hr 49 min 21 sec)
Warmup finished CPU 3 instructions: 50000002 cycles: 12508105 cumulative IPC: 3.997 (Simulation time: 00 hr 49 min 21 sec)
Heartbeat CPU 2 instructions: 50000003 cycles: 12508181 heartbeat IPC: 4 cumulative IPC: 3.997 (Simulation time: 00 hr 49 min 22 sec)
Heartbeat CPU 6 instructions: 50000001 cycles: 12508181 heartbeat IPC: 4 cumulative IPC: 3.997 (Simulation time: 00 hr 49 min 22 sec)
Warmup finished CPU 6 instructions: 50000001 cycles: 12508181 cumulative IPC: 3.997 (Simulation time: 00 hr 49 min 22 sec)
Warmup finished CPU 2 instructions: 50000003 cycles: 12508181 cumulative IPC: 3.997 (Simulation time: 00 hr 49 min 22 sec)
Heartbeat CPU 7 instructions: 50000002 cycles: 12508302 heartbeat IPC: 4 cumulative IPC: 3.997 (Simulation time: 00 hr 49 min 22 sec)
Warmup finished CPU 7 instructions: 50000002 cycles: 12508302 cumulative IPC: 3.997 (Simulation time: 00 hr 49 min 22 sec)
Heartbeat CPU 4 instructions: 20000005 cycles: 13853973 heartbeat IPC: 0.9196 cumulative IPC: 1.444 (Simulation time: 00 hr 54 min 26 sec)
Heartbeat CPU 0 instructions: 20000000 cycles: 13854105 heartbeat IPC: 0.9196 cumulative IPC: 1.444 (Simulation time: 00 hr 54 min 26 sec)
Heartbeat CPU 3 instructions: 60000002 cycles: 15008105 heartbeat IPC: 4 cumulative IPC: 3.998 (Simulation time: 00 hr 58 min 49 sec)
Heartbeat CPU 2 instructions: 60000003 cycles: 15008181 heartbeat IPC: 4 cumulative IPC: 3.998 (Simulation time: 00 hr 58 min 49 sec)
Heartbeat CPU 6 instructions: 60000001 cycles: 15008181 heartbeat IPC: 4 cumulative IPC: 3.998 (Simulation time: 00 hr 58 min 49 sec)
Heartbeat CPU 7 instructions: 60000002 cycles: 15008302 heartbeat IPC: 4 cumulative IPC: 3.998 (Simulation time: 00 hr 58 min 49 sec)
Heartbeat CPU 1 instructions: 40000006 cycles: 15151034 heartbeat IPC: 2.707 cumulative IPC: 2.64 (Simulation time: 00 hr 59 min 21 sec)
Heartbeat CPU 5 instructions: 40000006 cycles: 15198186 heartbeat IPC: 2.696 cumulative IPC: 2.632 (Simulation time: 00 hr 59 min 32 sec)
Heartbeat CPU 3 instructions: 70000002 cycles: 17508105 heartbeat IPC: 4 cumulative IPC: 3.998 (Simulation time: 01 hr 08 min 33 sec)
Heartbeat CPU 2 instructions: 70000003 cycles: 17508181 heartbeat IPC: 4 cumulative IPC: 3.998 (Simulation time: 01 hr 08 min 33 sec)
Heartbeat CPU 6 instructions: 70000001 cycles: 17508181 heartbeat IPC: 4 cumulative IPC: 3.998 (Simulation time: 01 hr 08 min 33 sec)
Heartbeat CPU 7 instructions: 70000002 cycles: 17508302 heartbeat IPC: 4 cumulative IPC: 3.998 (Simulation time: 01 hr 08 min 33 sec)
Warmup finished CPU 1 instructions: 50000003 cycles: 18866559 cumulative IPC: 2.65 (Simulation time: 01 hr 13 min 27 sec)
Heartbeat CPU 1 instructions: 50000007 cycles: 18866560 heartbeat IPC: 2.691 cumulative IPC: 2.65 (Simulation time: 01 hr 13 min 27 sec)
Warmup finished CPU 5 instructions: 50000003 cycles: 18928520 cumulative IPC: 2.642 (Simulation time: 01 hr 13 min 40 sec)
Heartbeat CPU 5 instructions: 50000007 cycles: 18928521 heartbeat IPC: 2.681 cumulative IPC: 2.642 (Simulation time: 01 hr 13 min 40 sec)
Heartbeat CPU 3 instructions: 80000002 cycles: 20008105 heartbeat IPC: 4 cumulative IPC: 3.998 (Simulation time: 01 hr 17 min 35 sec)
Heartbeat CPU 2 instructions: 80000003 cycles: 20008181 heartbeat IPC: 4 cumulative IPC: 3.998 (Simulation time: 01 hr 17 min 35 sec)
Heartbeat CPU 6 instructions: 80000001 cycles: 20008181 heartbeat IPC: 4 cumulative IPC: 3.998 (Simulation time: 01 hr 17 min 35 sec)
Heartbeat CPU 7 instructions: 80000002 cycles: 20008302 heartbeat IPC: 4 cumulative IPC: 3.998 (Simulation time: 01 hr 17 min 35 sec)
Heartbeat CPU 1 instructions: 60000010 cycles: 22485849 heartbeat IPC: 2.763 cumulative IPC: 2.668 (Simulation time: 01 hr 26 min 36 sec)
Heartbeat CPU 3 instructions: 90000002 cycles: 22508105 heartbeat IPC: 4 cumulative IPC: 3.999 (Simulation time: 01 hr 26 min 41 sec)
Heartbeat CPU 2 instructions: 90000003 cycles: 22508181 heartbeat IPC: 4 cumulative IPC: 3.999 (Simulation time: 01 hr 26 min 41 sec)
Heartbeat CPU 6 instructions: 90000001 cycles: 22508181 heartbeat IPC: 4 cumulative IPC: 3.999 (Simulation time: 01 hr 26 min 41 sec)
Heartbeat CPU 7 instructions: 90000002 cycles: 22508302 heartbeat IPC: 4 cumulative IPC: 3.999 (Simulation time: 01 hr 26 min 41 sec)
Heartbeat CPU 5 instructions: 60000010 cycles: 22563587 heartbeat IPC: 2.751 cumulative IPC: 2.659 (Simulation time: 01 hr 26 min 53 sec)
Heartbeat CPU 3 instructions: 100000002 cycles: 25008105 heartbeat IPC: 4 cumulative IPC: 3.999 (Simulation time: 01 hr 35 min 48 sec)
Heartbeat CPU 2 instructions: 100000003 cycles: 25008181 heartbeat IPC: 4 cumulative IPC: 3.999 (Simulation time: 01 hr 35 min 48 sec)
Heartbeat CPU 6 instructions: 100000001 cycles: 25008181 heartbeat IPC: 4 cumulative IPC: 3.999 (Simulation time: 01 hr 35 min 48 sec)
Heartbeat CPU 7 instructions: 100000002 cycles: 25008302 heartbeat IPC: 4 cumulative IPC: 3.999 (Simulation time: 01 hr 35 min 48 sec)
Heartbeat CPU 1 instructions: 70000012 cycles: 26177720 heartbeat IPC: 2.709 cumulative IPC: 2.674 (Simulation time: 01 hr 40 min 04 sec)
Heartbeat CPU 5 instructions: 70000012 cycles: 26270291 heartbeat IPC: 2.698 cumulative IPC: 2.665 (Simulation time: 01 hr 40 min 24 sec)
Heartbeat CPU 3 instructions: 110000002 cycles: 27508105 heartbeat IPC: 4 cumulative IPC: 3.999 (Simulation time: 01 hr 45 min 00 sec)
Heartbeat CPU 2 instructions: 110000003 cycles: 27508181 heartbeat IPC: 4 cumulative IPC: 3.999 (Simulation time: 01 hr 45 min 00 sec)
Heartbeat CPU 6 instructions: 110000001 cycles: 27508181 heartbeat IPC: 4 cumulative IPC: 3.999 (Simulation time: 01 hr 45 min 00 sec)
Heartbeat CPU 7 instructions: 110000002 cycles: 27508302 heartbeat IPC: 4 cumulative IPC: 3.999 (Simulation time: 01 hr 45 min 00 sec)
Heartbeat CPU 0 instructions: 30000000 cycles: 28994813 heartbeat IPC: 0.6605 cumulative IPC: 1.035 (Simulation time: 01 hr 50 min 30 sec)
Heartbeat CPU 4 instructions: 30000005 cycles: 28994845 heartbeat IPC: 0.6605 cumulative IPC: 1.035 (Simulation time: 01 hr 50 min 30 sec)
Heartbeat CPU 1 instructions: 80000012 cycles: 29863416 heartbeat IPC: 2.713 cumulative IPC: 2.679 (Simulation time: 01 hr 53 min 38 sec)
Heartbeat CPU 5 instructions: 80000012 cycles: 29971402 heartbeat IPC: 2.702 cumulative IPC: 2.669 (Simulation time: 01 hr 54 min 02 sec)
Heartbeat CPU 3 instructions: 120000002 cycles: 30008105 heartbeat IPC: 4 cumulative IPC: 3.999 (Simulation time: 01 hr 54 min 10 sec)
Heartbeat CPU 2 instructions: 120000003 cycles: 30008181 heartbeat IPC: 4 cumulative IPC: 3.999 (Simulation time: 01 hr 54 min 10 sec)
Heartbeat CPU 6 instructions: 120000001 cycles: 30008181 heartbeat IPC: 4 cumulative IPC: 3.999 (Simulation time: 01 hr 54 min 10 sec)
Heartbeat CPU 7 instructions: 120000002 cycles: 30008302 heartbeat IPC: 4 cumulative IPC: 3.999 (Simulation time: 01 hr 54 min 10 sec)
Heartbeat CPU 3 instructions: 130000002 cycles: 32508105 heartbeat IPC: 4 cumulative IPC: 3.999 (Simulation time: 02 hr 03 min 24 sec)
Heartbeat CPU 2 instructions: 130000003 cycles: 32508181 heartbeat IPC: 4 cumulative IPC: 3.999 (Simulation time: 02 hr 03 min 24 sec)
Heartbeat CPU 6 instructions: 130000001 cycles: 32508181 heartbeat IPC: 4 cumulative IPC: 3.999 (Simulation time: 02 hr 03 min 24 sec)
Heartbeat CPU 7 instructions: 130000002 cycles: 32508302 heartbeat IPC: 4 cumulative IPC: 3.999 (Simulation time: 02 hr 03 min 24 sec)
Heartbeat CPU 1 instructions: 90000015 cycles: 33523478 heartbeat IPC: 2.732 cumulative IPC: 2.685 (Simulation time: 02 hr 07 min 00 sec)
Heartbeat CPU 5 instructions: 90000015 cycles: 33646276 heartbeat IPC: 2.721 cumulative IPC: 2.675 (Simulation time: 02 hr 07 min 28 sec)
Heartbeat CPU 3 instructions: 140000002 cycles: 35008105 heartbeat IPC: 4 cumulative IPC: 3.999 (Simulation time: 02 hr 12 min 26 sec)
Heartbeat CPU 2 instructions: 140000003 cycles: 35008181 heartbeat IPC: 4 cumulative IPC: 3.999 (Simulation time: 02 hr 12 min 26 sec)
Heartbeat CPU 6 instructions: 140000001 cycles: 35008181 heartbeat IPC: 4 cumulative IPC: 3.999 (Simulation time: 02 hr 12 min 26 sec)
Heartbeat CPU 7 instructions: 140000002 cycles: 35008302 heartbeat IPC: 4 cumulative IPC: 3.999 (Simulation time: 02 hr 12 min 26 sec)
Heartbeat CPU 1 instructions: 100000016 cycles: 37195233 heartbeat IPC: 2.723 cumulative IPC: 2.689 (Simulation time: 02 hr 20 min 39 sec)
Heartbeat CPU 5 instructions: 100000016 cycles: 37333088 heartbeat IPC: 2.712 cumulative IPC: 2.679 (Simulation time: 02 hr 21 min 11 sec)
Heartbeat CPU 3 instructions: 150000002 cycles: 37508105 heartbeat IPC: 4 cumulative IPC: 3.999 (Simulation time: 02 hr 21 min 51 sec)
Heartbeat CPU 2 instructions: 150000003 cycles: 37508181 heartbeat IPC: 4 cumulative IPC: 3.999 (Simulation time: 02 hr 21 min 51 sec)
Heartbeat CPU 6 instructions: 150000001 cycles: 37508181 heartbeat IPC: 4 cumulative IPC: 3.999 (Simulation time: 02 hr 21 min 51 sec)
Heartbeat CPU 7 instructions: 150000002 cycles: 37508302 heartbeat IPC: 4 cumulative IPC: 3.999 (Simulation time: 02 hr 21 min 51 sec)
Heartbeat CPU 3 instructions: 160000002 cycles: 40008105 heartbeat IPC: 4 cumulative IPC: 3.999 (Simulation time: 02 hr 31 min 21 sec)
Heartbeat CPU 2 instructions: 160000003 cycles: 40008181 heartbeat IPC: 4 cumulative IPC: 3.999 (Simulation time: 02 hr 31 min 21 sec)
Heartbeat CPU 6 instructions: 160000001 cycles: 40008181 heartbeat IPC: 4 cumulative IPC: 3.999 (Simulation time: 02 hr 31 min 21 sec)
Heartbeat CPU 7 instructions: 160000002 cycles: 40008302 heartbeat IPC: 4 cumulative IPC: 3.999 (Simulation time: 02 hr 31 min 21 sec)
Heartbeat CPU 1 instructions: 110000016 cycles: 40864117 heartbeat IPC: 2.726 cumulative IPC: 2.692 (Simulation time: 02 hr 34 min 33 sec)
Heartbeat CPU 5 instructions: 110000016 cycles: 41017257 heartbeat IPC: 2.714 cumulative IPC: 2.682 (Simulation time: 02 hr 35 min 07 sec)
Heartbeat CPU 3 instructions: 170000002 cycles: 42508105 heartbeat IPC: 4 cumulative IPC: 3.999 (Simulation time: 02 hr 40 min 39 sec)
Heartbeat CPU 2 instructions: 170000003 cycles: 42508181 heartbeat IPC: 4 cumulative IPC: 3.999 (Simulation time: 02 hr 40 min 39 sec)
Heartbeat CPU 6 instructions: 170000001 cycles: 42508181 heartbeat IPC: 4 cumulative IPC: 3.999 (Simulation time: 02 hr 40 min 39 sec)
Heartbeat CPU 7 instructions: 170000002 cycles: 42508302 heartbeat IPC: 4 cumulative IPC: 3.999 (Simulation time: 02 hr 40 min 39 sec)
Heartbeat CPU 4 instructions: 40000005 cycles: 44447516 heartbeat IPC: 0.6471 cumulative IPC: 0.8999 (Simulation time: 02 hr 47 min 49 sec)
Heartbeat CPU 0 instructions: 40000000 cycles: 44447898 heartbeat IPC: 0.6471 cumulative IPC: 0.8999 (Simulation time: 02 hr 47 min 49 sec)
Heartbeat CPU 1 instructions: 120000018 cycles: 44590885 heartbeat IPC: 2.683 cumulative IPC: 2.691 (Simulation time: 02 hr 48 min 21 sec)
Heartbeat CPU 5 instructions: 120000018 cycles: 44758870 heartbeat IPC: 2.673 cumulative IPC: 2.681 (Simulation time: 02 hr 48 min 58 sec)
Heartbeat CPU 3 instructions: 180000002 cycles: 45008105 heartbeat IPC: 4 cumulative IPC: 3.999 (Simulation time: 02 hr 49 min 54 sec)
Heartbeat CPU 2 instructions: 180000003 cycles: 45008181 heartbeat IPC: 4 cumulative IPC: 3.999 (Simulation time: 02 hr 49 min 54 sec)
Heartbeat CPU 6 instructions: 180000001 cycles: 45008181 heartbeat IPC: 4 cumulative IPC: 3.999 (Simulation time: 02 hr 49 min 54 sec)
Heartbeat CPU 7 instructions: 180000002 cycles: 45008302 heartbeat IPC: 4 cumulative IPC: 3.999 (Simulation time: 02 hr 49 min 54 sec)
Heartbeat CPU 3 instructions: 190000002 cycles: 47508105 heartbeat IPC: 4 cumulative IPC: 3.999 (Simulation time: 02 hr 59 min 17 sec)
Heartbeat CPU 2 instructions: 190000003 cycles: 47508181 heartbeat IPC: 4 cumulative IPC: 3.999 (Simulation time: 02 hr 59 min 17 sec)
Heartbeat CPU 6 instructions: 190000001 cycles: 47508181 heartbeat IPC: 4 cumulative IPC: 3.999 (Simulation time: 02 hr 59 min 17 sec)
Heartbeat CPU 7 instructions: 190000002 cycles: 47508302 heartbeat IPC: 4 cumulative IPC: 3.999 (Simulation time: 02 hr 59 min 17 sec)
Heartbeat CPU 1 instructions: 130000020 cycles: 48280712 heartbeat IPC: 2.71 cumulative IPC: 2.693 (Simulation time: 03 hr 02 min 11 sec)
Heartbeat CPU 5 instructions: 130000020 cycles: 48463723 heartbeat IPC: 2.699 cumulative IPC: 2.682 (Simulation time: 03 hr 02 min 52 sec)
Heartbeat CPU 3 instructions: 200000002 cycles: 50008105 heartbeat IPC: 4 cumulative IPC: 3.999 (Simulation time: 03 hr 08 min 32 sec)
Heartbeat CPU 2 instructions: 200000003 cycles: 50008181 heartbeat IPC: 4 cumulative IPC: 3.999 (Simulation time: 03 hr 08 min 32 sec)
Heartbeat CPU 6 instructions: 200000001 cycles: 50008181 heartbeat IPC: 4 cumulative IPC: 3.999 (Simulation time: 03 hr 08 min 32 sec)
Heartbeat CPU 7 instructions: 200000002 cycles: 50008302 heartbeat IPC: 4 cumulative IPC: 3.999 (Simulation time: 03 hr 08 min 32 sec)
Heartbeat CPU 1 instructions: 140000020 cycles: 51848722 heartbeat IPC: 2.803 cumulative IPC: 2.7 (Simulation time: 03 hr 15 min 12 sec)
Heartbeat CPU 5 instructions: 140000020 cycles: 52046753 heartbeat IPC: 2.791 cumulative IPC: 2.69 (Simulation time: 03 hr 15 min 57 sec)
Heartbeat CPU 3 instructions: 210000002 cycles: 52508105 heartbeat IPC: 4 cumulative IPC: 3.999 (Simulation time: 03 hr 17 min 41 sec)
Heartbeat CPU 2 instructions: 210000003 cycles: 52508181 heartbeat IPC: 4 cumulative IPC: 3.999 (Simulation time: 03 hr 17 min 41 sec)
Heartbeat CPU 6 instructions: 210000001 cycles: 52508181 heartbeat IPC: 4 cumulative IPC: 3.999 (Simulation time: 03 hr 17 min 41 sec)
Heartbeat CPU 7 instructions: 210000002 cycles: 52508302 heartbeat IPC: 4 cumulative IPC: 3.999 (Simulation time: 03 hr 17 min 41 sec)
Heartbeat CPU 3 instructions: 220000002 cycles: 55008105 heartbeat IPC: 4 cumulative IPC: 3.999 (Simulation time: 03 hr 27 min 15 sec)
Heartbeat CPU 2 instructions: 220000003 cycles: 55008181 heartbeat IPC: 4 cumulative IPC: 3.999 (Simulation time: 03 hr 27 min 15 sec)
Heartbeat CPU 6 instructions: 220000001 cycles: 55008181 heartbeat IPC: 4 cumulative IPC: 3.999 (Simulation time: 03 hr 27 min 15 sec)
Heartbeat CPU 7 instructions: 220000002 cycles: 55008302 heartbeat IPC: 4 cumulative IPC: 3.999 (Simulation time: 03 hr 27 min 15 sec)
Heartbeat CPU 1 instructions: 150000023 cycles: 55807169 heartbeat IPC: 2.526 cumulative IPC: 2.688 (Simulation time: 03 hr 30 min 24 sec)
Heartbeat CPU 5 instructions: 150000023 cycles: 56004089 heartbeat IPC: 2.527 cumulative IPC: 2.678 (Simulation time: 03 hr 31 min 12 sec)
Heartbeat CPU 3 instructions: 230000002 cycles: 57508105 heartbeat IPC: 4 cumulative IPC: 3.999 (Simulation time: 03 hr 36 min 04 sec)
Heartbeat CPU 2 instructions: 230000003 cycles: 57508181 heartbeat IPC: 4 cumulative IPC: 3.999 (Simulation time: 03 hr 36 min 04 sec)
Heartbeat CPU 6 instructions: 230000001 cycles: 57508181 heartbeat IPC: 4 cumulative IPC: 3.999 (Simulation time: 03 hr 36 min 04 sec)
Heartbeat CPU 7 instructions: 230000002 cycles: 57508302 heartbeat IPC: 4 cumulative IPC: 3.999 (Simulation time: 03 hr 36 min 04 sec)
Heartbeat CPU 1 instructions: 160000023 cycles: 59640250 heartbeat IPC: 2.609 cumulative IPC: 2.683 (Simulation time: 03 hr 44 min 03 sec)
Heartbeat CPU 5 instructions: 160000023 cycles: 59852668 heartbeat IPC: 2.598 cumulative IPC: 2.673 (Simulation time: 03 hr 44 min 52 sec)
Heartbeat CPU 3 instructions: 240000002 cycles: 60008105 heartbeat IPC: 4 cumulative IPC: 3.999 (Simulation time: 03 hr 45 min 27 sec)
Heartbeat CPU 2 instructions: 240000003 cycles: 60008181 heartbeat IPC: 4 cumulative IPC: 3.999 (Simulation time: 03 hr 45 min 27 sec)
Heartbeat CPU 6 instructions: 240000001 cycles: 60008181 heartbeat IPC: 4 cumulative IPC: 3.999 (Simulation time: 03 hr 45 min 27 sec)
Heartbeat CPU 7 instructions: 240000002 cycles: 60008302 heartbeat IPC: 4 cumulative IPC: 3.999 (Simulation time: 03 hr 45 min 27 sec)
Warmup finished CPU 4 instructions: 50000000 cycles: 60116859 cumulative IPC: 0.8317 (Simulation time: 03 hr 45 min 52 sec)
Heartbeat CPU 4 instructions: 50000005 cycles: 60116870 heartbeat IPC: 0.6382 cumulative IPC: 0.8317 (Simulation time: 03 hr 45 min 52 sec)
Heartbeat CPU 0 instructions: 50000000 cycles: 60117164 heartbeat IPC: 0.6382 cumulative IPC: 0.8317 (Simulation time: 03 hr 45 min 52 sec)
Warmup finished CPU 0 instructions: 50000000 cycles: 60117164 cumulative IPC: 0.8317 (Simulation time: 03 hr 45 min 52 sec)
Warmup complete CPU 7 instructions: 240435450 cycles: 60117164 cumulative IPC: 3.999 (Simulation time: 03 hr 45 min 52 sec)
Warmup complete CPU 6 instructions: 240435933 cycles: 60117164 cumulative IPC: 3.999 (Simulation time: 03 hr 45 min 52 sec)
Warmup complete CPU 5 instructions: 160717497 cycles: 60117164 cumulative IPC: 2.673 (Simulation time: 03 hr 45 min 52 sec)
Warmup complete CPU 4 instructions: 50000290 cycles: 60117164 cumulative IPC: 0.8317 (Simulation time: 03 hr 45 min 52 sec)
Warmup complete CPU 3 instructions: 240436238 cycles: 60117164 cumulative IPC: 3.999 (Simulation time: 03 hr 45 min 52 sec)
Warmup complete CPU 2 instructions: 240435935 cycles: 60117164 cumulative IPC: 3.999 (Simulation time: 03 hr 45 min 52 sec)
Warmup complete CPU 1 instructions: 161306028 cycles: 60117164 cumulative IPC: 2.683 (Simulation time: 03 hr 45 min 52 sec)
Warmup complete CPU 0 instructions: 50000000 cycles: 60117164 cumulative IPC: 0.8317 (Simulation time: 03 hr 45 min 52 sec)
Heartbeat CPU 3 instructions: 250000002 cycles: 62508105 heartbeat IPC: 4 cumulative IPC: 4 (Simulation time: 03 hr 54 min 53 sec)
Heartbeat CPU 2 instructions: 250000003 cycles: 62508181 heartbeat IPC: 4 cumulative IPC: 4 (Simulation time: 03 hr 54 min 53 sec)
Heartbeat CPU 6 instructions: 250000001 cycles: 62508181 heartbeat IPC: 4 cumulative IPC: 4 (Simulation time: 03 hr 54 min 53 sec)
Heartbeat CPU 7 instructions: 250000002 cycles: 62508302 heartbeat IPC: 4 cumulative IPC: 4 (Simulation time: 03 hr 54 min 53 sec)
Heartbeat CPU 1 instructions: 170000026 cycles: 64623639 heartbeat IPC: 2.007 cumulative IPC: 1.929 (Simulation time: 04 hr 03 min 03 sec)
Heartbeat CPU 5 instructions: 170000026 cycles: 64623741 heartbeat IPC: 2.096 cumulative IPC: 2.06 (Simulation time: 04 hr 03 min 03 sec)
Heartbeat CPU 3 instructions: 260000002 cycles: 65008105 heartbeat IPC: 4 cumulative IPC: 4 (Simulation time: 04 hr 04 min 29 sec)
Heartbeat CPU 2 instructions: 260000003 cycles: 65008181 heartbeat IPC: 4 cumulative IPC: 4 (Simulation time: 04 hr 04 min 29 sec)
Heartbeat CPU 6 instructions: 260000001 cycles: 65008181 heartbeat IPC: 4 cumulative IPC: 4 (Simulation time: 04 hr 04 min 29 sec)
Heartbeat CPU 7 instructions: 260000002 cycles: 65008302 heartbeat IPC: 4 cumulative IPC: 4 (Simulation time: 04 hr 04 min 29 sec)
Heartbeat CPU 3 instructions: 270000002 cycles: 67508105 heartbeat IPC: 4 cumulative IPC: 4 (Simulation time: 04 hr 13 min 55 sec)
Heartbeat CPU 2 instructions: 270000003 cycles: 67508181 heartbeat IPC: 4 cumulative IPC: 4 (Simulation time: 04 hr 13 min 55 sec)
Heartbeat CPU 6 instructions: 270000001 cycles: 67508181 heartbeat IPC: 4 cumulative IPC: 4 (Simulation time: 04 hr 13 min 55 sec)
Heartbeat CPU 7 instructions: 270000002 cycles: 67508302 heartbeat IPC: 4 cumulative IPC: 4 (Simulation time: 04 hr 13 min 55 sec)
Heartbeat CPU 1 instructions: 180000028 cycles: 69671873 heartbeat IPC: 1.981 cumulative IPC: 1.957 (Simulation time: 04 hr 21 min 59 sec)
Heartbeat CPU 5 instructions: 180000028 cycles: 69671892 heartbeat IPC: 1.981 cumulative IPC: 2.018 (Simulation time: 04 hr 21 min 59 sec)
Heartbeat CPU 3 instructions: 280000002 cycles: 70008105 heartbeat IPC: 4 cumulative IPC: 4 (Simulation time: 04 hr 23 min 17 sec)
Heartbeat CPU 2 instructions: 280000003 cycles: 70008181 heartbeat IPC: 4 cumulative IPC: 4 (Simulation time: 04 hr 23 min 17 sec)
Heartbeat CPU 6 instructions: 280000001 cycles: 70008181 heartbeat IPC: 4 cumulative IPC: 4 (Simulation time: 04 hr 23 min 17 sec)
Heartbeat CPU 7 instructions: 280000002 cycles: 70008302 heartbeat IPC: 4 cumulative IPC: 4 (Simulation time: 04 hr 23 min 17 sec)
Heartbeat CPU 3 instructions: 290000002 cycles: 72508105 heartbeat IPC: 4 cumulative IPC: 4 (Simulation time: 04 hr 33 min 03 sec)
Heartbeat CPU 2 instructions: 290000003 cycles: 72508181 heartbeat IPC: 4 cumulative IPC: 4 (Simulation time: 04 hr 33 min 03 sec)
Heartbeat CPU 6 instructions: 290000001 cycles: 72508181 heartbeat IPC: 4 cumulative IPC: 4 (Simulation time: 04 hr 33 min 03 sec)
Heartbeat CPU 7 instructions: 290000002 cycles: 72508302 heartbeat IPC: 4 cumulative IPC: 4 (Simulation time: 04 hr 33 min 03 sec)
Heartbeat CPU 1 instructions: 190000028 cycles: 74617563 heartbeat IPC: 2.022 cumulative IPC: 1.979 (Simulation time: 04 hr 41 min 14 sec)
Heartbeat CPU 5 instructions: 190000028 cycles: 74617655 heartbeat IPC: 2.022 cumulative IPC: 2.019 (Simulation time: 04 hr 41 min 14 sec)
Heartbeat CPU 3 instructions: 300000002 cycles: 75008105 heartbeat IPC: 4 cumulative IPC: 4 (Simulation time: 04 hr 42 min 39 sec)
Heartbeat CPU 2 instructions: 300000003 cycles: 75008181 heartbeat IPC: 4 cumulative IPC: 4 (Simulation time: 04 hr 42 min 39 sec)
Heartbeat CPU 6 instructions: 300000001 cycles: 75008181 heartbeat IPC: 4 cumulative IPC: 4 (Simulation time: 04 hr 42 min 39 sec)
Heartbeat CPU 7 instructions: 300000002 cycles: 75008302 heartbeat IPC: 4 cumulative IPC: 4 (Simulation time: 04 hr 42 min 39 sec)
Heartbeat CPU 3 instructions: 310000002 cycles: 77508105 heartbeat IPC: 4 cumulative IPC: 4 (Simulation time: 04 hr 52 min 46 sec)
Heartbeat CPU 2 instructions: 310000003 cycles: 77508181 heartbeat IPC: 4 cumulative IPC: 4 (Simulation time: 04 hr 52 min 46 sec)
Heartbeat CPU 6 instructions: 310000001 cycles: 77508181 heartbeat IPC: 4 cumulative IPC: 4 (Simulation time: 04 hr 52 min 46 sec)
Heartbeat CPU 7 instructions: 310000002 cycles: 77508302 heartbeat IPC: 4 cumulative IPC: 4 (Simulation time: 04 hr 52 min 46 sec)
Heartbeat CPU 1 instructions: 200000028 cycles: 79386551 heartbeat IPC: 2.097 cumulative IPC: 2.008 (Simulation time: 04 hr 59 min 47 sec)
Heartbeat CPU 5 instructions: 200000028 cycles: 79386925 heartbeat IPC: 2.097 cumulative IPC: 2.039 (Simulation time: 04 hr 59 min 47 sec)
Heartbeat CPU 0 instructions: 60000000 cycles: 79870639 heartbeat IPC: 0.5062 cumulative IPC: 0.5062 (Simulation time: 05 hr 01 min 31 sec)
Heartbeat CPU 4 instructions: 60000007 cycles: 79870711 heartbeat IPC: 0.5062 cumulative IPC: 0.5062 (Simulation time: 05 hr 01 min 31 sec)
Heartbeat CPU 3 instructions: 320000002 cycles: 80008105 heartbeat IPC: 4 cumulative IPC: 4 (Simulation time: 05 hr 02 min 01 sec)
Heartbeat CPU 2 instructions: 320000003 cycles: 80008181 heartbeat IPC: 4 cumulative IPC: 4 (Simulation time: 05 hr 02 min 01 sec)
Heartbeat CPU 6 instructions: 320000001 cycles: 80008181 heartbeat IPC: 4 cumulative IPC: 4 (Simulation time: 05 hr 02 min 01 sec)
Heartbeat CPU 7 instructions: 320000002 cycles: 80008302 heartbeat IPC: 4 cumulative IPC: 4 (Simulation time: 05 hr 02 min 01 sec)
Heartbeat CPU 3 instructions: 330000002 cycles: 82508105 heartbeat IPC: 4 cumulative IPC: 4 (Simulation time: 05 hr 11 min 23 sec)
Heartbeat CPU 2 instructions: 330000003 cycles: 82508181 heartbeat IPC: 4 cumulative IPC: 4 (Simulation time: 05 hr 11 min 23 sec)
Heartbeat CPU 6 instructions: 330000001 cycles: 82508181 heartbeat IPC: 4 cumulative IPC: 4 (Simulation time: 05 hr 11 min 23 sec)
Heartbeat CPU 7 instructions: 330000002 cycles: 82508302 heartbeat IPC: 4 cumulative IPC: 4 (Simulation time: 05 hr 11 min 23 sec)
Heartbeat CPU 5 instructions: 210000031 cycles: 84316639 heartbeat IPC: 2.029 cumulative IPC: 2.037 (Simulation time: 05 hr 18 min 03 sec)
Heartbeat CPU 1 instructions: 210000031 cycles: 84316639 heartbeat IPC: 2.028 cumulative IPC: 2.012 (Simulation time: 05 hr 18 min 03 sec)
Heartbeat CPU 3 instructions: 340000002 cycles: 85008105 heartbeat IPC: 4 cumulative IPC: 4 (Simulation time: 05 hr 20 min 40 sec)
Heartbeat CPU 2 instructions: 340000003 cycles: 85008181 heartbeat IPC: 4 cumulative IPC: 4 (Simulation time: 05 hr 20 min 40 sec)
Heartbeat CPU 6 instructions: 340000001 cycles: 85008181 heartbeat IPC: 4 cumulative IPC: 4 (Simulation time: 05 hr 20 min 40 sec)
Heartbeat CPU 7 instructions: 340000002 cycles: 85008302 heartbeat IPC: 4 cumulative IPC: 4 (Simulation time: 05 hr 20 min 40 sec)
Simulation finished CPU 7 instructions: 100000000 cycles: 25000000 cumulative IPC: 4 (Simulation time: 05 hr 21 min 04 sec)
Simulation finished CPU 6 instructions: 100000000 cycles: 25000000 cumulative IPC: 4 (Simulation time: 05 hr 21 min 04 sec)
Simulation finished CPU 3 instructions: 100000000 cycles: 25000000 cumulative IPC: 4 (Simulation time: 05 hr 21 min 04 sec)
Simulation finished CPU 2 instructions: 100000000 cycles: 25000000 cumulative IPC: 4 (Simulation time: 05 hr 21 min 04 sec)
Heartbeat CPU 3 instructions: 350000002 cycles: 87508105 heartbeat IPC: 4 cumulative IPC: 4 (Simulation time: 05 hr 30 min 00 sec)
Heartbeat CPU 2 instructions: 350000003 cycles: 87508181 heartbeat IPC: 4 cumulative IPC: 4 (Simulation time: 05 hr 30 min 00 sec)
Heartbeat CPU 6 instructions: 350000001 cycles: 87508181 heartbeat IPC: 4 cumulative IPC: 4 (Simulation time: 05 hr 30 min 00 sec)
Heartbeat CPU 7 instructions: 350000002 cycles: 87508302 heartbeat IPC: 4 cumulative IPC: 4 (Simulation time: 05 hr 30 min 00 sec)
Heartbeat CPU 1 instructions: 220000031 cycles: 89311110 heartbeat IPC: 2.002 cumulative IPC: 2.01 (Simulation time: 05 hr 36 min 45 sec)
Heartbeat CPU 5 instructions: 220000031 cycles: 89311174 heartbeat IPC: 2.002 cumulative IPC: 2.031 (Simulation time: 05 hr 36 min 45 sec)
Heartbeat CPU 3 instructions: 360000002 cycles: 90008105 heartbeat IPC: 4 cumulative IPC: 4 (Simulation time: 05 hr 39 min 27 sec)
Heartbeat CPU 2 instructions: 360000003 cycles: 90008181 heartbeat IPC: 4 cumulative IPC: 4 (Simulation time: 05 hr 39 min 27 sec)
Heartbeat CPU 6 instructions: 360000001 cycles: 90008181 heartbeat IPC: 4 cumulative IPC: 4 (Simulation time: 05 hr 39 min 27 sec)
Heartbeat CPU 7 instructions: 360000002 cycles: 90008302 heartbeat IPC: 4 cumulative IPC: 4 (Simulation time: 05 hr 39 min 27 sec)
Heartbeat CPU 3 instructions: 370000002 cycles: 92508105 heartbeat IPC: 4 cumulative IPC: 4 (Simulation time: 05 hr 48 min 45 sec)
Heartbeat CPU 2 instructions: 370000003 cycles: 92508181 heartbeat IPC: 4 cumulative IPC: 4 (Simulation time: 05 hr 48 min 45 sec)
Heartbeat CPU 6 instructions: 370000001 cycles: 92508181 heartbeat IPC: 4 cumulative IPC: 4 (Simulation time: 05 hr 48 min 45 sec)
Heartbeat CPU 7 instructions: 370000002 cycles: 92508302 heartbeat IPC: 4 cumulative IPC: 4 (Simulation time: 05 hr 48 min 45 sec)
Heartbeat CPU 1 instructions: 230000032 cycles: 94180683 heartbeat IPC: 2.054 cumulative IPC: 2.017 (Simulation time: 05 hr 55 min 06 sec)
Heartbeat CPU 5 instructions: 230000034 cycles: 94180714 heartbeat IPC: 2.054 cumulative IPC: 2.034 (Simulation time: 05 hr 55 min 06 sec)
Heartbeat CPU 3 instructions: 380000002 cycles: 95008105 heartbeat IPC: 4 cumulative IPC: 4 (Simulation time: 05 hr 58 min 11 sec)
Heartbeat CPU 2 instructions: 380000003 cycles: 95008181 heartbeat IPC: 4 cumulative IPC: 4 (Simulation time: 05 hr 58 min 11 sec)
Heartbeat CPU 6 instructions: 380000001 cycles: 95008181 heartbeat IPC: 4 cumulative IPC: 4 (Simulation time: 05 hr 58 min 11 sec)
Heartbeat CPU 7 instructions: 380000002 cycles: 95008302 heartbeat IPC: 4 cumulative IPC: 4 (Simulation time: 05 hr 58 min 11 sec)
Heartbeat CPU 3 instructions: 390000002 cycles: 97508105 heartbeat IPC: 4 cumulative IPC: 4 (Simulation time: 06 hr 07 min 37 sec)
Heartbeat CPU 2 instructions: 390000003 cycles: 97508181 heartbeat IPC: 4 cumulative IPC: 4 (Simulation time: 06 hr 07 min 37 sec)
Heartbeat CPU 6 instructions: 390000001 cycles: 97508181 heartbeat IPC: 4 cumulative IPC: 4 (Simulation time: 06 hr 07 min 37 sec)
Heartbeat CPU 7 instructions: 390000002 cycles: 97508302 heartbeat IPC: 4 cumulative IPC: 4 (Simulation time: 06 hr 07 min 37 sec)
Heartbeat CPU 1 instructions: 240000035 cycles: 99129475 heartbeat IPC: 2.021 cumulative IPC: 2.017 (Simulation time: 06 hr 13 min 37 sec)
Heartbeat CPU 5 instructions: 240000037 cycles: 99129531 heartbeat IPC: 2.021 cumulative IPC: 2.032 (Simulation time: 06 hr 13 min 37 sec)
Heartbeat CPU 0 instructions: 70000000 cycles: 99295814 heartbeat IPC: 0.5148 cumulative IPC: 0.5105 (Simulation time: 06 hr 14 min 14 sec)
Heartbeat CPU 4 instructions: 70000007 cycles: 99295868 heartbeat IPC: 0.5148 cumulative IPC: 0.5105 (Simulation time: 06 hr 14 min 14 sec)
Heartbeat CPU 3 instructions: 400000002 cycles: 100008105 heartbeat IPC: 4 cumulative IPC: 4 (Simulation time: 06 hr 16 min 53 sec)
Heartbeat CPU 2 instructions: 400000003 cycles: 100008181 heartbeat IPC: 4 cumulative IPC: 4 (Simulation time: 06 hr 16 min 53 sec)
Heartbeat CPU 6 instructions: 400000001 cycles: 100008181 heartbeat IPC: 4 cumulative IPC: 4 (Simulation time: 06 hr 16 min 53 sec)
Heartbeat CPU 7 instructions: 400000002 cycles: 100008302 heartbeat IPC: 4 cumulative IPC: 4 (Simulation time: 06 hr 16 min 53 sec)
Heartbeat CPU 3 instructions: 410000004 cycles: 102508175 heartbeat IPC: 4 cumulative IPC: 4 (Simulation time: 06 hr 26 min 13 sec)
Heartbeat CPU 2 instructions: 410000003 cycles: 102508181 heartbeat IPC: 4 cumulative IPC: 4 (Simulation time: 06 hr 26 min 13 sec)
Heartbeat CPU 6 instructions: 410000001 cycles: 102508181 heartbeat IPC: 4 cumulative IPC: 4 (Simulation time: 06 hr 26 min 13 sec)
Heartbeat CPU 7 instructions: 410000002 cycles: 102508302 heartbeat IPC: 4 cumulative IPC: 4 (Simulation time: 06 hr 26 min 13 sec)
Heartbeat CPU 1 instructions: 250000035 cycles: 104152779 heartbeat IPC: 1.991 cumulative IPC: 2.014 (Simulation time: 06 hr 32 min 09 sec)
Heartbeat CPU 5 instructions: 250000037 cycles: 104152948 heartbeat IPC: 1.991 cumulative IPC: 2.027 (Simulation time: 06 hr 32 min 09 sec)
Heartbeat CPU 3 instructions: 420000004 cycles: 105008175 heartbeat IPC: 4 cumulative IPC: 4 (Simulation time: 06 hr 35 min 29 sec)
Heartbeat CPU 6 instructions: 420000004 cycles: 105008243 heartbeat IPC: 4 cumulative IPC: 4 (Simulation time: 06 hr 35 min 29 sec)
Heartbeat CPU 2 instructions: 420000004 cycles: 105008249 heartbeat IPC: 4 cumulative IPC: 4 (Simulation time: 06 hr 35 min 29 sec)
Heartbeat CPU 7 instructions: 420000002 cycles: 105008302 heartbeat IPC: 4 cumulative IPC: 4 (Simulation time: 06 hr 35 min 29 sec)
Heartbeat CPU 3 instructions: 430000004 cycles: 107508175 heartbeat IPC: 4 cumulative IPC: 4 (Simulation time: 06 hr 44 min 56 sec)
Heartbeat CPU 6 instructions: 430000004 cycles: 107508243 heartbeat IPC: 4 cumulative IPC: 4 (Simulation time: 06 hr 44 min 56 sec)
Heartbeat CPU 2 instructions: 430000004 cycles: 107508249 heartbeat IPC: 4 cumulative IPC: 4 (Simulation time: 06 hr 44 min 56 sec)
Heartbeat CPU 7 instructions: 430000002 cycles: 107508302 heartbeat IPC: 4 cumulative IPC: 4 (Simulation time: 06 hr 44 min 56 sec)
Heartbeat CPU 1 instructions: 260000038 cycles: 109200858 heartbeat IPC: 1.981 cumulative IPC: 2.011 (Simulation time: 06 hr 51 min 05 sec)
Heartbeat CPU 5 instructions: 260000038 cycles: 109200877 heartbeat IPC: 1.981 cumulative IPC: 2.023 (Simulation time: 06 hr 51 min 05 sec)
Simulation finished CPU 5 instructions: 100000003 cycles: 49480798 cumulative IPC: 2.021 (Simulation time: 06 hr 52 min 29 sec)
Simulation finished CPU 1 instructions: 100000000 cycles: 49770852 cumulative IPC: 2.009 (Simulation time: 06 hr 53 min 31 sec)
Heartbeat CPU 3 instructions: 440000004 cycles: 110008175 heartbeat IPC: 4 cumulative IPC: 4 (Simulation time: 06 hr 53 min 58 sec)
Heartbeat CPU 6 instructions: 440000004 cycles: 110008243 heartbeat IPC: 4 cumulative IPC: 4 (Simulation time: 06 hr 53 min 58 sec)
Heartbeat CPU 2 instructions: 440000004 cycles: 110008249 heartbeat IPC: 4 cumulative IPC: 4 (Simulation time: 06 hr 53 min 58 sec)
Heartbeat CPU 7 instructions: 440000002 cycles: 110008302 heartbeat IPC: 4 cumulative IPC: 4 (Simulation time: 06 hr 53 min 58 sec)
Heartbeat CPU 3 instructions: 450000004 cycles: 112508175 heartbeat IPC: 4 cumulative IPC: 4 (Simulation time: 07 hr 03 min 02 sec)
Heartbeat CPU 6 instructions: 450000004 cycles: 112508243 heartbeat IPC: 4 cumulative IPC: 4 (Simulation time: 07 hr 03 min 02 sec)
Heartbeat CPU 2 instructions: 450000004 cycles: 112508249 heartbeat IPC: 4 cumulative IPC: 4 (Simulation time: 07 hr 03 min 02 sec)
Heartbeat CPU 7 instructions: 450000002 cycles: 112508302 heartbeat IPC: 4 cumulative IPC: 4 (Simulation time: 07 hr 03 min 02 sec)
Heartbeat CPU 1 instructions: 270000040 cycles: 114242223 heartbeat IPC: 1.984 cumulative IPC: 2.008 (Simulation time: 07 hr 09 min 24 sec)
Heartbeat CPU 5 instructions: 270000040 cycles: 114242234 heartbeat IPC: 1.984 cumulative IPC: 2.019 (Simulation time: 07 hr 09 min 24 sec)
Heartbeat CPU 3 instructions: 460000004 cycles: 115008175 heartbeat IPC: 4 cumulative IPC: 4 (Simulation time: 07 hr 12 min 15 sec)
Heartbeat CPU 6 instructions: 460000004 cycles: 115008243 heartbeat IPC: 4 cumulative IPC: 4 (Simulation time: 07 hr 12 min 15 sec)
Heartbeat CPU 2 instructions: 460000004 cycles: 115008249 heartbeat IPC: 4 cumulative IPC: 4 (Simulation time: 07 hr 12 min 15 sec)
Heartbeat CPU 7 instructions: 460000002 cycles: 115008302 heartbeat IPC: 4 cumulative IPC: 4 (Simulation time: 07 hr 12 min 15 sec)
Heartbeat CPU 3 instructions: 470000004 cycles: 117508175 heartbeat IPC: 4 cumulative IPC: 4 (Simulation time: 07 hr 21 min 23 sec)
Heartbeat CPU 6 instructions: 470000004 cycles: 117508243 heartbeat IPC: 4 cumulative IPC: 4 (Simulation time: 07 hr 21 min 23 sec)
Heartbeat CPU 2 instructions: 470000004 cycles: 117508249 heartbeat IPC: 4 cumulative IPC: 4 (Simulation time: 07 hr 21 min 23 sec)
Heartbeat CPU 7 instructions: 470000002 cycles: 117508302 heartbeat IPC: 4 cumulative IPC: 4 (Simulation time: 07 hr 21 min 23 sec)
Heartbeat CPU 0 instructions: 80000004 cycles: 118119019 heartbeat IPC: 0.5313 cumulative IPC: 0.5172 (Simulation time: 07 hr 23 min 31 sec)
Heartbeat CPU 4 instructions: 80000007 cycles: 118119076 heartbeat IPC: 0.5313 cumulative IPC: 0.5172 (Simulation time: 07 hr 23 min 31 sec)
Heartbeat CPU 3 instructions: 480000004 cycles: 120008175 heartbeat IPC: 4 cumulative IPC: 4 (Simulation time: 07 hr 30 min 18 sec)
Heartbeat CPU 6 instructions: 480000004 cycles: 120008243 heartbeat IPC: 4 cumulative IPC: 4 (Simulation time: 07 hr 30 min 18 sec)
Heartbeat CPU 2 instructions: 480000004 cycles: 120008249 heartbeat IPC: 4 cumulative IPC: 4 (Simulation time: 07 hr 30 min 18 sec)
Heartbeat CPU 7 instructions: 480000002 cycles: 120008302 heartbeat IPC: 4 cumulative IPC: 4 (Simulation time: 07 hr 30 min 18 sec)
Heartbeat CPU 1 instructions: 280000042 cycles: 120249471 heartbeat IPC: 1.665 cumulative IPC: 1.974 (Simulation time: 07 hr 31 min 10 sec)
Heartbeat CPU 5 instructions: 280000042 cycles: 120249471 heartbeat IPC: 1.665 cumulative IPC: 1.984 (Simulation time: 07 hr 31 min 10 sec)
Heartbeat CPU 3 instructions: 490000004 cycles: 122508175 heartbeat IPC: 4 cumulative IPC: 4 (Simulation time: 07 hr 39 min 07 sec)
Heartbeat CPU 6 instructions: 490000004 cycles: 122508243 heartbeat IPC: 4 cumulative IPC: 4 (Simulation time: 07 hr 39 min 07 sec)
Heartbeat CPU 2 instructions: 490000004 cycles: 122508249 heartbeat IPC: 4 cumulative IPC: 4 (Simulation time: 07 hr 39 min 07 sec)
Heartbeat CPU 7 instructions: 490000002 cycles: 122508302 heartbeat IPC: 4 cumulative IPC: 4 (Simulation time: 07 hr 39 min 07 sec)
Heartbeat CPU 3 instructions: 500000004 cycles: 125008175 heartbeat IPC: 4 cumulative IPC: 4 (Simulation time: 07 hr 48 min 04 sec)
Heartbeat CPU 6 instructions: 500000004 cycles: 125008243 heartbeat IPC: 4 cumulative IPC: 4 (Simulation time: 07 hr 48 min 04 sec)
Heartbeat CPU 2 instructions: 500000004 cycles: 125008249 heartbeat IPC: 4 cumulative IPC: 4 (Simulation time: 07 hr 48 min 04 sec)
Heartbeat CPU 7 instructions: 500000002 cycles: 125008302 heartbeat IPC: 4 cumulative IPC: 4 (Simulation time: 07 hr 48 min 04 sec)
Heartbeat CPU 1 instructions: 290000042 cycles: 127091525 heartbeat IPC: 1.462 cumulative IPC: 1.922 (Simulation time: 07 hr 55 min 42 sec)
Heartbeat CPU 5 instructions: 290000042 cycles: 127091684 heartbeat IPC: 1.462 cumulative IPC: 1.93 (Simulation time: 07 hr 55 min 42 sec)
Heartbeat CPU 3 instructions: 510000004 cycles: 127508175 heartbeat IPC: 4 cumulative IPC: 4 (Simulation time: 07 hr 57 min 11 sec)
Heartbeat CPU 6 instructions: 510000004 cycles: 127508243 heartbeat IPC: 4 cumulative IPC: 4 (Simulation time: 07 hr 57 min 12 sec)
Heartbeat CPU 2 instructions: 510000004 cycles: 127508249 heartbeat IPC: 4 cumulative IPC: 4 (Simulation time: 07 hr 57 min 12 sec)
Heartbeat CPU 7 instructions: 510000002 cycles: 127508302 heartbeat IPC: 4 cumulative IPC: 4 (Simulation time: 07 hr 57 min 12 sec)
Heartbeat CPU 3 instructions: 520000004 cycles: 130008175 heartbeat IPC: 4 cumulative IPC: 4 (Simulation time: 08 hr 06 min 12 sec)
Heartbeat CPU 6 instructions: 520000004 cycles: 130008243 heartbeat IPC: 4 cumulative IPC: 4 (Simulation time: 08 hr 06 min 12 sec)
Heartbeat CPU 2 instructions: 520000004 cycles: 130008249 heartbeat IPC: 4 cumulative IPC: 4 (Simulation time: 08 hr 06 min 12 sec)
Heartbeat CPU 7 instructions: 520000002 cycles: 130008302 heartbeat IPC: 4 cumulative IPC: 4 (Simulation time: 08 hr 06 min 12 sec)
Heartbeat CPU 1 instructions: 300000043 cycles: 132321633 heartbeat IPC: 1.912 cumulative IPC: 1.921 (Simulation time: 08 hr 14 min 36 sec)
Heartbeat CPU 5 instructions: 300000043 cycles: 132321646 heartbeat IPC: 1.912 cumulative IPC: 1.929 (Simulation time: 08 hr 14 min 36 sec)
Heartbeat CPU 3 instructions: 530000004 cycles: 132508175 heartbeat IPC: 4 cumulative IPC: 4 (Simulation time: 08 hr 15 min 18 sec)
Heartbeat CPU 6 instructions: 530000004 cycles: 132508243 heartbeat IPC: 4 cumulative IPC: 4 (Simulation time: 08 hr 15 min 18 sec)
Heartbeat CPU 2 instructions: 530000004 cycles: 132508249 heartbeat IPC: 4 cumulative IPC: 4 (Simulation time: 08 hr 15 min 18 sec)
Heartbeat CPU 7 instructions: 530000002 cycles: 132508302 heartbeat IPC: 4 cumulative IPC: 4 (Simulation time: 08 hr 15 min 18 sec)
*** Reached end of trace: (7, "/home/harshraj/COALESCE-Hashed-Perceptron-Cache-Replacement-Policy/simulator/traces/barnes_4t3.champsimtrace")
*** Reached end of trace: (3, "/home/harshraj/COALESCE-Hashed-Perceptron-Cache-Replacement-Policy/simulator/traces/barnes_4t3.champsimtrace")
Heartbeat CPU 6 instructions: 540000004 cycles: 135008243 heartbeat IPC: 4 cumulative IPC: 4 (Simulation time: 08 hr 24 min 48 sec)
Heartbeat CPU 2 instructions: 540000004 cycles: 135008249 heartbeat IPC: 4 cumulative IPC: 4 (Simulation time: 08 hr 24 min 48 sec)
Heartbeat CPU 3 instructions: 540000006 cycles: 135015910 heartbeat IPC: 3.988 cumulative IPC: 4 (Simulation time: 08 hr 24 min 49 sec)
Heartbeat CPU 7 instructions: 540000002 cycles: 135015919 heartbeat IPC: 3.988 cumulative IPC: 4 (Simulation time: 08 hr 24 min 49 sec)
Heartbeat CPU 5 instructions: 310000043 cycles: 137318753 heartbeat IPC: 2.001 cumulative IPC: 1.934 (Simulation time: 08 hr 33 min 17 sec)
Heartbeat CPU 1 instructions: 310000043 cycles: 137318753 heartbeat IPC: 2.001 cumulative IPC: 1.926 (Simulation time: 08 hr 33 min 17 sec)
Heartbeat CPU 6 instructions: 550000004 cycles: 137508243 heartbeat IPC: 4 cumulative IPC: 4 (Simulation time: 08 hr 34 min 00 sec)
Heartbeat CPU 2 instructions: 550000004 cycles: 137508249 heartbeat IPC: 4 cumulative IPC: 4 (Simulation time: 08 hr 34 min 00 sec)
Heartbeat CPU 3 instructions: 550000006 cycles: 137515910 heartbeat IPC: 4 cumulative IPC: 4 (Simulation time: 08 hr 34 min 02 sec)
Heartbeat CPU 7 instructions: 550000002 cycles: 137515919 heartbeat IPC: 4 cumulative IPC: 4 (Simulation time: 08 hr 34 min 02 sec)
Heartbeat CPU 0 instructions: 90000005 cycles: 137848262 heartbeat IPC: 0.5069 cumulative IPC: 0.5146 (Simulation time: 08 hr 35 min 19 sec)
Heartbeat CPU 4 instructions: 90000010 cycles: 137848264 heartbeat IPC: 0.5069 cumulative IPC: 0.5146 (Simulation time: 08 hr 35 min 19 sec)
*** Reached end of trace: (6, "/home/harshraj/COALESCE-Hashed-Perceptron-Cache-Replacement-Policy/simulator/traces/barnes_4t2.champsimtrace")
*** Reached end of trace: (2, "/home/harshraj/COALESCE-Hashed-Perceptron-Cache-Replacement-Policy/simulator/traces/barnes_4t2.champsimtrace")
Heartbeat CPU 6 instructions: 560000007 cycles: 140015740 heartbeat IPC: 3.988 cumulative IPC: 4 (Simulation time: 08 hr 43 min 37 sec)
Heartbeat CPU 2 instructions: 560000005 cycles: 140015754 heartbeat IPC: 3.988 cumulative IPC: 4 (Simulation time: 08 hr 43 min 37 sec)
Heartbeat CPU 3 instructions: 560000006 cycles: 140015910 heartbeat IPC: 4 cumulative IPC: 4 (Simulation time: 08 hr 43 min 37 sec)
Heartbeat CPU 7 instructions: 560000002 cycles: 140015919 heartbeat IPC: 4 cumulative IPC: 4 (Simulation time: 08 hr 43 min 37 sec)
Heartbeat CPU 6 instructions: 570000007 cycles: 142515740 heartbeat IPC: 4 cumulative IPC: 4 (Simulation time: 08 hr 53 min 19 sec)
Heartbeat CPU 2 instructions: 570000005 cycles: 142515754 heartbeat IPC: 4 cumulative IPC: 4 (Simulation time: 08 hr 53 min 19 sec)
Heartbeat CPU 3 instructions: 570000006 cycles: 142515910 heartbeat IPC: 4 cumulative IPC: 4 (Simulation time: 08 hr 53 min 19 sec)
Heartbeat CPU 7 instructions: 570000002 cycles: 142515919 heartbeat IPC: 4 cumulative IPC: 4 (Simulation time: 08 hr 53 min 19 sec)
Heartbeat CPU 1 instructions: 320000046 cycles: 142539088 heartbeat IPC: 1.916 cumulative IPC: 1.925 (Simulation time: 08 hr 53 min 24 sec)
Heartbeat CPU 5 instructions: 320000046 cycles: 142539537 heartbeat IPC: 1.915 cumulative IPC: 1.933 (Simulation time: 08 hr 53 min 24 sec)
Heartbeat CPU 6 instructions: 580000007 cycles: 145015740 heartbeat IPC: 4 cumulative IPC: 4 (Simulation time: 09 hr 02 min 47 sec)
Heartbeat CPU 2 instructions: 580000005 cycles: 145015754 heartbeat IPC: 4 cumulative IPC: 4 (Simulation time: 09 hr 02 min 47 sec)
Heartbeat CPU 3 instructions: 580000006 cycles: 145015910 heartbeat IPC: 4 cumulative IPC: 4 (Simulation time: 09 hr 02 min 47 sec)
Heartbeat CPU 7 instructions: 580000002 cycles: 145015919 heartbeat IPC: 4 cumulative IPC: 4 (Simulation time: 09 hr 02 min 47 sec)
Heartbeat CPU 6 instructions: 590000007 cycles: 147515740 heartbeat IPC: 4 cumulative IPC: 4 (Simulation time: 09 hr 12 min 32 sec)
Heartbeat CPU 2 instructions: 590000005 cycles: 147515754 heartbeat IPC: 4 cumulative IPC: 4 (Simulation time: 09 hr 12 min 32 sec)
Heartbeat CPU 3 instructions: 590000006 cycles: 147515910 heartbeat IPC: 4 cumulative IPC: 4 (Simulation time: 09 hr 12 min 32 sec)
Heartbeat CPU 7 instructions: 590000002 cycles: 147515919 heartbeat IPC: 4 cumulative IPC: 4 (Simulation time: 09 hr 12 min 32 sec)
Heartbeat CPU 1 instructions: 330000048 cycles: 147635113 heartbeat IPC: 1.962 cumulative IPC: 1.928 (Simulation time: 09 hr 13 min 00 sec)
Heartbeat CPU 5 instructions: 330000048 cycles: 147635408 heartbeat IPC: 1.962 cumulative IPC: 1.934 (Simulation time: 09 hr 13 min 00 sec)
Heartbeat CPU 6 instructions: 600000007 cycles: 150015740 heartbeat IPC: 4 cumulative IPC: 4 (Simulation time: 09 hr 21 min 45 sec)
Heartbeat CPU 2 instructions: 600000005 cycles: 150015754 heartbeat IPC: 4 cumulative IPC: 4 (Simulation time: 09 hr 21 min 45 sec)
Heartbeat CPU 3 instructions: 600000006 cycles: 150015910 heartbeat IPC: 4 cumulative IPC: 4 (Simulation time: 09 hr 21 min 45 sec)
Heartbeat CPU 7 instructions: 600000002 cycles: 150015919 heartbeat IPC: 4 cumulative IPC: 4 (Simulation time: 09 hr 21 min 45 sec)
Heartbeat CPU 6 instructions: 610000007 cycles: 152515740 heartbeat IPC: 4 cumulative IPC: 4 (Simulation time: 09 hr 30 min 52 sec)
Heartbeat CPU 2 instructions: 610000005 cycles: 152515754 heartbeat IPC: 4 cumulative IPC: 4 (Simulation time: 09 hr 30 min 52 sec)
Heartbeat CPU 1 instructions: 340000051 cycles: 152515908 heartbeat IPC: 2.049 cumulative IPC: 1.934 (Simulation time: 09 hr 30 min 52 sec)
Heartbeat CPU 3 instructions: 610000006 cycles: 152515910 heartbeat IPC: 4 cumulative IPC: 4 (Simulation time: 09 hr 30 min 52 sec)
Heartbeat CPU 7 instructions: 610000002 cycles: 152515919 heartbeat IPC: 4 cumulative IPC: 4 (Simulation time: 09 hr 30 min 52 sec)
Heartbeat CPU 5 instructions: 340000051 cycles: 152516016 heartbeat IPC: 2.049 cumulative IPC: 1.94 (Simulation time: 09 hr 30 min 52 sec)
Heartbeat CPU 6 instructions: 620000007 cycles: 155015740 heartbeat IPC: 4 cumulative IPC: 4 (Simulation time: 09 hr 39 min 59 sec)
Heartbeat CPU 2 instructions: 620000005 cycles: 155015754 heartbeat IPC: 4 cumulative IPC: 4 (Simulation time: 09 hr 39 min 59 sec)
Heartbeat CPU 3 instructions: 620000006 cycles: 155015910 heartbeat IPC: 4 cumulative IPC: 4 (Simulation time: 09 hr 39 min 59 sec)
Heartbeat CPU 7 instructions: 620000002 cycles: 155015919 heartbeat IPC: 4 cumulative IPC: 4 (Simulation time: 09 hr 39 min 59 sec)
Heartbeat CPU 0 instructions: 100000009 cycles: 156466525 heartbeat IPC: 0.5371 cumulative IPC: 0.5189 (Simulation time: 09 hr 45 min 37 sec)
Heartbeat CPU 4 instructions: 100000014 cycles: 156466527 heartbeat IPC: 0.5371 cumulative IPC: 0.5189 (Simulation time: 09 hr 45 min 37 sec)
Heartbeat CPU 1 instructions: 350000052 cycles: 156976047 heartbeat IPC: 2.242 cumulative IPC: 1.948 (Simulation time: 09 hr 47 min 39 sec)
Heartbeat CPU 5 instructions: 350000053 cycles: 156976053 heartbeat IPC: 2.242 cumulative IPC: 1.954 (Simulation time: 09 hr 47 min 39 sec)
Heartbeat CPU 6 instructions: 630000007 cycles: 157515740 heartbeat IPC: 4 cumulative IPC: 4 (Simulation time: 09 hr 49 min 46 sec)
Heartbeat CPU 2 instructions: 630000005 cycles: 157515754 heartbeat IPC: 4 cumulative IPC: 4 (Simulation time: 09 hr 49 min 46 sec)
Heartbeat CPU 3 instructions: 630000006 cycles: 157515910 heartbeat IPC: 4 cumulative IPC: 4 (Simulation time: 09 hr 49 min 46 sec)
Heartbeat CPU 7 instructions: 630000002 cycles: 157515919 heartbeat IPC: 4 cumulative IPC: 4 (Simulation time: 09 hr 49 min 46 sec)
Heartbeat CPU 6 instructions: 640000007 cycles: 160015740 heartbeat IPC: 4 cumulative IPC: 4 (Simulation time: 09 hr 59 min 38 sec)
Heartbeat CPU 2 instructions: 640000005 cycles: 160015754 heartbeat IPC: 4 cumulative IPC: 4 (Simulation time: 09 hr 59 min 38 sec)
Heartbeat CPU 3 instructions: 640000006 cycles: 160015910 heartbeat IPC: 4 cumulative IPC: 4 (Simulation time: 09 hr 59 min 38 sec)
Heartbeat CPU 7 instructions: 640000002 cycles: 160015919 heartbeat IPC: 4 cumulative IPC: 4 (Simulation time: 09 hr 59 min 38 sec)
Heartbeat CPU 1 instructions: 360000055 cycles: 161997443 heartbeat IPC: 1.991 cumulative IPC: 1.95 (Simulation time: 10 hr 06 min 58 sec)
Heartbeat CPU 5 instructions: 360000055 cycles: 161997535 heartbeat IPC: 1.991 cumulative IPC: 1.956 (Simulation time: 10 hr 06 min 58 sec)
Heartbeat CPU 6 instructions: 650000007 cycles: 162515740 heartbeat IPC: 4 cumulative IPC: 4 (Simulation time: 10 hr 08 min 55 sec)
Heartbeat CPU 2 instructions: 650000005 cycles: 162515754 heartbeat IPC: 4 cumulative IPC: 4 (Simulation time: 10 hr 08 min 55 sec)
Heartbeat CPU 3 instructions: 650000006 cycles: 162515910 heartbeat IPC: 4 cumulative IPC: 4 (Simulation time: 10 hr 08 min 55 sec)
Heartbeat CPU 7 instructions: 650000002 cycles: 162515919 heartbeat IPC: 4 cumulative IPC: 4 (Simulation time: 10 hr 08 min 55 sec)
Heartbeat CPU 6 instructions: 660000007 cycles: 165015740 heartbeat IPC: 4 cumulative IPC: 4 (Simulation time: 10 hr 18 min 06 sec)
Heartbeat CPU 2 instructions: 660000005 cycles: 165015754 heartbeat IPC: 4 cumulative IPC: 4 (Simulation time: 10 hr 18 min 06 sec)
Heartbeat CPU 3 instructions: 660000006 cycles: 165015910 heartbeat IPC: 4 cumulative IPC: 4 (Simulation time: 10 hr 18 min 06 sec)
Heartbeat CPU 7 instructions: 660000002 cycles: 165015919 heartbeat IPC: 4 cumulative IPC: 4 (Simulation time: 10 hr 18 min 06 sec)
Heartbeat CPU 1 instructions: 370000056 cycles: 166694867 heartbeat IPC: 2.129 cumulative IPC: 1.958 (Simulation time: 10 hr 24 min 22 sec)
Heartbeat CPU 5 instructions: 370000056 cycles: 166694878 heartbeat IPC: 2.129 cumulative IPC: 1.964 (Simulation time: 10 hr 24 min 22 sec)
Heartbeat CPU 6 instructions: 670000007 cycles: 167515740 heartbeat IPC: 4 cumulative IPC: 4 (Simulation time: 10 hr 27 min 25 sec)
Heartbeat CPU 2 instructions: 670000005 cycles: 167515754 heartbeat IPC: 4 cumulative IPC: 4 (Simulation time: 10 hr 27 min 25 sec)
Heartbeat CPU 3 instructions: 670000006 cycles: 167515910 heartbeat IPC: 4 cumulative IPC: 4 (Simulation time: 10 hr 27 min 25 sec)
Heartbeat CPU 7 instructions: 670000002 cycles: 167515919 heartbeat IPC: 4 cumulative IPC: 4 (Simulation time: 10 hr 27 min 25 sec)
Heartbeat CPU 6 instructions: 680000007 cycles: 170015740 heartbeat IPC: 4 cumulative IPC: 4 (Simulation time: 10 hr 36 min 09 sec)
Heartbeat CPU 2 instructions: 680000005 cycles: 170015754 heartbeat IPC: 4 cumulative IPC: 4 (Simulation time: 10 hr 36 min 09 sec)
Heartbeat CPU 3 instructions: 680000006 cycles: 170015910 heartbeat IPC: 4 cumulative IPC: 4 (Simulation time: 10 hr 36 min 09 sec)
Heartbeat CPU 7 instructions: 680000002 cycles: 170015919 heartbeat IPC: 4 cumulative IPC: 4 (Simulation time: 10 hr 36 min 09 sec)
Heartbeat CPU 1 instructions: 380000058 cycles: 171715340 heartbeat IPC: 1.992 cumulative IPC: 1.96 (Simulation time: 10 hr 42 min 19 sec)
Heartbeat CPU 5 instructions: 380000058 cycles: 171716431 heartbeat IPC: 1.991 cumulative IPC: 1.965 (Simulation time: 10 hr 42 min 19 sec)
Heartbeat CPU 6 instructions: 690000007 cycles: 172515740 heartbeat IPC: 4 cumulative IPC: 4 (Simulation time: 10 hr 45 min 13 sec)
Heartbeat CPU 2 instructions: 690000005 cycles: 172515754 heartbeat IPC: 4 cumulative IPC: 4 (Simulation time: 10 hr 45 min 13 sec)
Heartbeat CPU 3 instructions: 690000006 cycles: 172515910 heartbeat IPC: 4 cumulative IPC: 4 (Simulation time: 10 hr 45 min 13 sec)
Heartbeat CPU 7 instructions: 690000002 cycles: 172515919 heartbeat IPC: 4 cumulative IPC: 4 (Simulation time: 10 hr 45 min 13 sec)
Heartbeat CPU 0 instructions: 110000010 cycles: 173730385 heartbeat IPC: 0.5792 cumulative IPC: 0.5281 (Simulation time: 10 hr 49 min 42 sec)
Heartbeat CPU 4 instructions: 110000014 cycles: 173730397 heartbeat IPC: 0.5792 cumulative IPC: 0.5281 (Simulation time: 10 hr 49 min 42 sec)
Heartbeat CPU 6 instructions: 700000007 cycles: 175015740 heartbeat IPC: 4 cumulative IPC: 4 (Simulation time: 10 hr 54 min 26 sec)
Heartbeat CPU 2 instructions: 700000005 cycles: 175015754 heartbeat IPC: 4 cumulative IPC: 4 (Simulation time: 10 hr 54 min 26 sec)
Heartbeat CPU 3 instructions: 700000006 cycles: 175015910 heartbeat IPC: 4 cumulative IPC: 4 (Simulation time: 10 hr 54 min 26 sec)
Heartbeat CPU 7 instructions: 700000002 cycles: 175015919 heartbeat IPC: 4 cumulative IPC: 4 (Simulation time: 10 hr 54 min 26 sec)
Heartbeat CPU 1 instructions: 390000061 cycles: 177414357 heartbeat IPC: 1.755 cumulative IPC: 1.95 (Simulation time: 11 hr 03 min 27 sec)
Heartbeat CPU 5 instructions: 390000061 cycles: 177414414 heartbeat IPC: 1.755 cumulative IPC: 1.955 (Simulation time: 11 hr 03 min 27 sec)
Heartbeat CPU 6 instructions: 710000007 cycles: 177515740 heartbeat IPC: 4 cumulative IPC: 4 (Simulation time: 11 hr 03 min 50 sec)
Heartbeat CPU 2 instructions: 710000005 cycles: 177515754 heartbeat IPC: 4 cumulative IPC: 4 (Simulation time: 11 hr 03 min 50 sec)
Heartbeat CPU 3 instructions: 710000006 cycles: 177515910 heartbeat IPC: 4 cumulative IPC: 4 (Simulation time: 11 hr 03 min 50 sec)
Heartbeat CPU 7 instructions: 710000002 cycles: 177515919 heartbeat IPC: 4 cumulative IPC: 4 (Simulation time: 11 hr 03 min 50 sec)
Heartbeat CPU 6 instructions: 720000007 cycles: 180015740 heartbeat IPC: 4 cumulative IPC: 4 (Simulation time: 11 hr 13 min 08 sec)
Heartbeat CPU 2 instructions: 720000005 cycles: 180015754 heartbeat IPC: 4 cumulative IPC: 4 (Simulation time: 11 hr 13 min 08 sec)
Heartbeat CPU 3 instructions: 720000006 cycles: 180015910 heartbeat IPC: 4 cumulative IPC: 4 (Simulation time: 11 hr 13 min 08 sec)
Heartbeat CPU 7 instructions: 720000002 cycles: 180015919 heartbeat IPC: 4 cumulative IPC: 4 (Simulation time: 11 hr 13 min 08 sec)
Heartbeat CPU 6 instructions: 730000007 cycles: 182515740 heartbeat IPC: 4 cumulative IPC: 4 (Simulation time: 11 hr 23 min 07 sec)
Heartbeat CPU 2 instructions: 730000005 cycles: 182515754 heartbeat IPC: 4 cumulative IPC: 4 (Simulation time: 11 hr 23 min 07 sec)
Heartbeat CPU 3 instructions: 730000006 cycles: 182515910 heartbeat IPC: 4 cumulative IPC: 4 (Simulation time: 11 hr 23 min 07 sec)
Heartbeat CPU 7 instructions: 730000002 cycles: 182515919 heartbeat IPC: 4 cumulative IPC: 4 (Simulation time: 11 hr 23 min 07 sec)
Heartbeat CPU 1 instructions: 400000063 cycles: 183459179 heartbeat IPC: 1.654 cumulative IPC: 1.935 (Simulation time: 11 hr 26 min 53 sec)
Heartbeat CPU 5 instructions: 400000063 cycles: 183459188 heartbeat IPC: 1.654 cumulative IPC: 1.94 (Simulation time: 11 hr 26 min 53 sec)
Heartbeat CPU 6 instructions: 740000007 cycles: 185015740 heartbeat IPC: 4 cumulative IPC: 4 (Simulation time: 11 hr 32 min 37 sec)
Heartbeat CPU 2 instructions: 740000005 cycles: 185015754 heartbeat IPC: 4 cumulative IPC: 4 (Simulation time: 11 hr 32 min 37 sec)
Heartbeat CPU 3 instructions: 740000006 cycles: 185015910 heartbeat IPC: 4 cumulative IPC: 4 (Simulation time: 11 hr 32 min 37 sec)
Heartbeat CPU 7 instructions: 740000002 cycles: 185015919 heartbeat IPC: 4 cumulative IPC: 4 (Simulation time: 11 hr 32 min 37 sec)
Heartbeat CPU 6 instructions: 750000007 cycles: 187515740 heartbeat IPC: 4 cumulative IPC: 4 (Simulation time: 11 hr 41 min 26 sec)
Heartbeat CPU 2 instructions: 750000005 cycles: 187515754 heartbeat IPC: 4 cumulative IPC: 4 (Simulation time: 11 hr 41 min 26 sec)
Heartbeat CPU 3 instructions: 750000006 cycles: 187515910 heartbeat IPC: 4 cumulative IPC: 4 (Simulation time: 11 hr 41 min 26 sec)
Heartbeat CPU 7 instructions: 750000002 cycles: 187515919 heartbeat IPC: 4 cumulative IPC: 4 (Simulation time: 11 hr 41 min 26 sec)
Heartbeat CPU 1 instructions: 410000064 cycles: 188987573 heartbeat IPC: 1.809 cumulative IPC: 1.93 (Simulation time: 11 hr 46 min 53 sec)
Heartbeat CPU 5 instructions: 410000064 cycles: 188987579 heartbeat IPC: 1.809 cumulative IPC: 1.934 (Simulation time: 11 hr 46 min 53 sec)
Heartbeat CPU 6 instructions: 760000007 cycles: 190015740 heartbeat IPC: 4 cumulative IPC: 4 (Simulation time: 11 hr 51 min 02 sec)
Heartbeat CPU 2 instructions: 760000005 cycles: 190015754 heartbeat IPC: 4 cumulative IPC: 4 (Simulation time: 11 hr 51 min 02 sec)
Heartbeat CPU 3 instructions: 760000006 cycles: 190015910 heartbeat IPC: 4 cumulative IPC: 4 (Simulation time: 11 hr 51 min 02 sec)
Heartbeat CPU 7 instructions: 760000002 cycles: 190015919 heartbeat IPC: 4 cumulative IPC: 4 (Simulation time: 11 hr 51 min 02 sec)
Heartbeat CPU 0 instructions: 120000010 cycles: 190341597 heartbeat IPC: 0.602 cumulative IPC: 0.5375 (Simulation time: 11 hr 52 min 24 sec)
Heartbeat CPU 4 instructions: 120000015 cycles: 190341643 heartbeat IPC: 0.602 cumulative IPC: 0.5375 (Simulation time: 11 hr 52 min 24 sec)
Heartbeat CPU 6 instructions: 770000007 cycles: 192515740 heartbeat IPC: 4 cumulative IPC: 4 (Simulation time: 12 hr 01 min 19 sec)
Heartbeat CPU 2 instructions: 770000005 cycles: 192515754 heartbeat IPC: 4 cumulative IPC: 4 (Simulation time: 12 hr 01 min 19 sec)
Heartbeat CPU 3 instructions: 770000006 cycles: 192515910 heartbeat IPC: 4 cumulative IPC: 4 (Simulation time: 12 hr 01 min 19 sec)
Heartbeat CPU 7 instructions: 770000002 cycles: 192515919 heartbeat IPC: 4 cumulative IPC: 4 (Simulation time: 12 hr 01 min 19 sec)
Heartbeat CPU 6 instructions: 780000007 cycles: 195015740 heartbeat IPC: 4 cumulative IPC: 4 (Simulation time: 12 hr 11 min 40 sec)
Heartbeat CPU 2 instructions: 780000005 cycles: 195015754 heartbeat IPC: 4 cumulative IPC: 4 (Simulation time: 12 hr 11 min 40 sec)
Heartbeat CPU 3 instructions: 780000006 cycles: 195015910 heartbeat IPC: 4 cumulative IPC: 4 (Simulation time: 12 hr 11 min 41 sec)
Heartbeat CPU 7 instructions: 780000002 cycles: 195015919 heartbeat IPC: 4 cumulative IPC: 4 (Simulation time: 12 hr 11 min 41 sec)
Heartbeat CPU 5 instructions: 420000066 cycles: 196785890 heartbeat IPC: 1.282 cumulative IPC: 1.897 (Simulation time: 12 hr 18 min 35 sec)
Heartbeat CPU 1 instructions: 420000066 cycles: 196785891 heartbeat IPC: 1.282 cumulative IPC: 1.893 (Simulation time: 12 hr 18 min 35 sec)
Heartbeat CPU 6 instructions: 790000007 cycles: 197515740 heartbeat IPC: 4 cumulative IPC: 4 (Simulation time: 12 hr 21 min 31 sec)
Heartbeat CPU 2 instructions: 790000005 cycles: 197515754 heartbeat IPC: 4 cumulative IPC: 4 (Simulation time: 12 hr 21 min 31 sec)
Heartbeat CPU 3 instructions: 790000006 cycles: 197515910 heartbeat IPC: 4 cumulative IPC: 4 (Simulation time: 12 hr 21 min 31 sec)
Heartbeat CPU 7 instructions: 790000002 cycles: 197515919 heartbeat IPC: 4 cumulative IPC: 4 (Simulation time: 12 hr 21 min 31 sec)
Heartbeat CPU 6 instructions: 800000007 cycles: 200015740 heartbeat IPC: 4 cumulative IPC: 4 (Simulation time: 12 hr 31 min 00 sec)
Heartbeat CPU 2 instructions: 800000005 cycles: 200015754 heartbeat IPC: 4 cumulative IPC: 4 (Simulation time: 12 hr 31 min 00 sec)
Heartbeat CPU 3 instructions: 800000006 cycles: 200015910 heartbeat IPC: 4 cumulative IPC: 4 (Simulation time: 12 hr 31 min 00 sec)
Heartbeat CPU 7 instructions: 800000002 cycles: 200015919 heartbeat IPC: 4 cumulative IPC: 4 (Simulation time: 12 hr 31 min 00 sec)
Heartbeat CPU 6 instructions: 810000007 cycles: 202515740 heartbeat IPC: 4 cumulative IPC: 4 (Simulation time: 12 hr 40 min 59 sec)
Heartbeat CPU 2 instructions: 810000005 cycles: 202515754 heartbeat IPC: 4 cumulative IPC: 4 (Simulation time: 12 hr 40 min 59 sec)
Heartbeat CPU 3 instructions: 810000006 cycles: 202515910 heartbeat IPC: 4 cumulative IPC: 4 (Simulation time: 12 hr 40 min 59 sec)
Heartbeat CPU 7 instructions: 810000002 cycles: 202515919 heartbeat IPC: 4 cumulative IPC: 4 (Simulation time: 12 hr 40 min 59 sec)
Heartbeat CPU 1 instructions: 430000066 cycles: 202679173 heartbeat IPC: 1.697 cumulative IPC: 1.885 (Simulation time: 12 hr 41 min 38 sec)
Heartbeat CPU 5 instructions: 430000066 cycles: 202679209 heartbeat IPC: 1.697 cumulative IPC: 1.889 (Simulation time: 12 hr 41 min 38 sec)
Heartbeat CPU 0 instructions: 130000012 cycles: 202742050 heartbeat IPC: 0.8064 cumulative IPC: 0.5609 (Simulation time: 12 hr 41 min 53 sec)
Heartbeat CPU 4 instructions: 130000017 cycles: 202742069 heartbeat IPC: 0.8064 cumulative IPC: 0.5609 (Simulation time: 12 hr 41 min 53 sec)
Heartbeat CPU 6 instructions: 820000007 cycles: 205015740 heartbeat IPC: 4 cumulative IPC: 4 (Simulation time: 12 hr 50 min 59 sec)
Heartbeat CPU 2 instructions: 820000005 cycles: 205015754 heartbeat IPC: 4 cumulative IPC: 4 (Simulation time: 12 hr 50 min 59 sec)
Heartbeat CPU 3 instructions: 820000006 cycles: 205015910 heartbeat IPC: 4 cumulative IPC: 4 (Simulation time: 12 hr 50 min 59 sec)
Heartbeat CPU 7 instructions: 820000002 cycles: 205015919 heartbeat IPC: 4 cumulative IPC: 4 (Simulation time: 12 hr 50 min 59 sec)
Heartbeat CPU 6 instructions: 830000007 cycles: 207515740 heartbeat IPC: 4 cumulative IPC: 4 (Simulation time: 13 hr 01 min 45 sec)
Heartbeat CPU 2 instructions: 830000005 cycles: 207515754 heartbeat IPC: 4 cumulative IPC: 4 (Simulation time: 13 hr 01 min 45 sec)
Heartbeat CPU 3 instructions: 830000006 cycles: 207515910 heartbeat IPC: 4 cumulative IPC: 4 (Simulation time: 13 hr 01 min 45 sec)
Heartbeat CPU 7 instructions: 830000002 cycles: 207515919 heartbeat IPC: 4 cumulative IPC: 4 (Simulation time: 13 hr 01 min 45 sec)
Heartbeat CPU 1 instructions: 440000069 cycles: 207781265 heartbeat IPC: 1.96 cumulative IPC: 1.887 (Simulation time: 13 hr 02 min 59 sec)
Heartbeat CPU 5 instructions: 440000069 cycles: 207781320 heartbeat IPC: 1.96 cumulative IPC: 1.891 (Simulation time: 13 hr 02 min 59 sec)
Heartbeat CPU 0 instructions: 140000015 cycles: 209425081 heartbeat IPC: 1.496 cumulative IPC: 0.6028 (Simulation time: 13 hr 10 min 33 sec)
Heartbeat CPU 4 instructions: 140000018 cycles: 209435884 heartbeat IPC: 1.494 cumulative IPC: 0.6027 (Simulation time: 13 hr 10 min 36 sec)
Heartbeat CPU 6 instructions: 840000007 cycles: 210015740 heartbeat IPC: 4 cumulative IPC: 4 (Simulation time: 13 hr 13 min 15 sec)
Heartbeat CPU 2 instructions: 840000005 cycles: 210015754 heartbeat IPC: 4 cumulative IPC: 4 (Simulation time: 13 hr 13 min 15 sec)
Heartbeat CPU 3 instructions: 840000006 cycles: 210015910 heartbeat IPC: 4 cumulative IPC: 4 (Simulation time: 13 hr 13 min 15 sec)
Heartbeat CPU 7 instructions: 840000002 cycles: 210015919 heartbeat IPC: 4 cumulative IPC: 4 (Simulation time: 13 hr 13 min 15 sec)
Heartbeat CPU 6 instructions: 850000007 cycles: 212515740 heartbeat IPC: 4 cumulative IPC: 4 (Simulation time: 13 hr 23 min 11 sec)
Heartbeat CPU 2 instructions: 850000005 cycles: 212515754 heartbeat IPC: 4 cumulative IPC: 4 (Simulation time: 13 hr 23 min 11 sec)
Heartbeat CPU 3 instructions: 850000006 cycles: 212515910 heartbeat IPC: 4 cumulative IPC: 4 (Simulation time: 13 hr 23 min 11 sec)
Heartbeat CPU 7 instructions: 850000002 cycles: 212515919 heartbeat IPC: 4 cumulative IPC: 4 (Simulation time: 13 hr 23 min 11 sec)
Heartbeat CPU 1 instructions: 450000070 cycles: 212987059 heartbeat IPC: 1.921 cumulative IPC: 1.888 (Simulation time: 13 hr 25 min 03 sec)
Heartbeat CPU 5 instructions: 450000070 cycles: 212987150 heartbeat IPC: 1.921 cumulative IPC: 1.892 (Simulation time: 13 hr 25 min 03 sec)
Heartbeat CPU 6 instructions: 860000007 cycles: 215015740 heartbeat IPC: 4 cumulative IPC: 4 (Simulation time: 13 hr 32 min 58 sec)
Heartbeat CPU 2 instructions: 860000005 cycles: 215015754 heartbeat IPC: 4 cumulative IPC: 4 (Simulation time: 13 hr 32 min 58 sec)
Heartbeat CPU 3 instructions: 860000006 cycles: 215015910 heartbeat IPC: 4 cumulative IPC: 4 (Simulation time: 13 hr 32 min 58 sec)
Heartbeat CPU 7 instructions: 860000002 cycles: 215015919 heartbeat IPC: 4 cumulative IPC: 4 (Simulation time: 13 hr 32 min 58 sec)
Heartbeat CPU 6 instructions: 870000007 cycles: 217515740 heartbeat IPC: 4 cumulative IPC: 4 (Simulation time: 13 hr 42 min 46 sec)
Heartbeat CPU 2 instructions: 870000005 cycles: 217515754 heartbeat IPC: 4 cumulative IPC: 4 (Simulation time: 13 hr 42 min 46 sec)
Heartbeat CPU 3 instructions: 870000006 cycles: 217515910 heartbeat IPC: 4 cumulative IPC: 4 (Simulation time: 13 hr 42 min 46 sec)
Heartbeat CPU 7 instructions: 870000002 cycles: 217515919 heartbeat IPC: 4 cumulative IPC: 4 (Simulation time: 13 hr 42 min 46 sec)
Heartbeat CPU 1 instructions: 460000072 cycles: 217978234 heartbeat IPC: 2.004 cumulative IPC: 1.892 (Simulation time: 13 hr 44 min 18 sec)
Heartbeat CPU 5 instructions: 460000071 cycles: 217978270 heartbeat IPC: 2.004 cumulative IPC: 1.896 (Simulation time: 13 hr 44 min 18 sec)
Heartbeat CPU 6 instructions: 880000007 cycles: 220015740 heartbeat IPC: 4 cumulative IPC: 4 (Simulation time: 13 hr 51 min 12 sec)
Heartbeat CPU 2 instructions: 880000005 cycles: 220015754 heartbeat IPC: 4 cumulative IPC: 4 (Simulation time: 13 hr 51 min 12 sec)
Heartbeat CPU 3 instructions: 880000006 cycles: 220015910 heartbeat IPC: 4 cumulative IPC: 4 (Simulation time: 13 hr 51 min 12 sec)
Heartbeat CPU 7 instructions: 880000002 cycles: 220015919 heartbeat IPC: 4 cumulative IPC: 4 (Simulation time: 13 hr 51 min 12 sec)
Simulation finished CPU 0 instructions: 100000004 cycles: 161179118 cumulative IPC: 0.6204 (Simulation time: 13 hr 55 min 04 sec)
Heartbeat CPU 0 instructions: 150000016 cycles: 221296285 heartbeat IPC: 0.8424 cumulative IPC: 0.6204 (Simulation time: 13 hr 55 min 04 sec)
Heartbeat CPU 4 instructions: 150000019 cycles: 221296404 heartbeat IPC: 0.8431 cumulative IPC: 0.6204 (Simulation time: 13 hr 55 min 04 sec)
Simulation finished CPU 4 instructions: 100000000 cycles: 161179842 cumulative IPC: 0.6204 (Simulation time: 13 hr 55 min 04 sec)
Simulation complete CPU 7 instructions: 644688900 cycles: 161179842 cumulative IPC: 4 (Simulation time: 13 hr 55 min 04 sec)
Simulation complete CPU 6 instructions: 644689138 cycles: 161179842 cumulative IPC: 4 (Simulation time: 13 hr 55 min 04 sec)
Simulation complete CPU 5 instructions: 305690134 cycles: 161179842 cumulative IPC: 1.897 (Simulation time: 13 hr 55 min 04 sec)
Simulation complete CPU 4 instructions: 100000000 cycles: 161179842 cumulative IPC: 0.6204 (Simulation time: 13 hr 55 min 04 sec)
Simulation complete CPU 3 instructions: 644688152 cycles: 161179842 cumulative IPC: 4 (Simulation time: 13 hr 55 min 04 sec)
Simulation complete CPU 2 instructions: 644689078 cycles: 161179842 cumulative IPC: 4 (Simulation time: 13 hr 55 min 04 sec)
Simulation complete CPU 1 instructions: 305103525 cycles: 161179842 cumulative IPC: 1.893 (Simulation time: 13 hr 55 min 04 sec)
Simulation complete CPU 0 instructions: 100000338 cycles: 161179842 cumulative IPC: 0.6204 (Simulation time: 13 hr 55 min 04 sec)

ChampSim completed all CPUs

=== Simulation ===
CPU 0 runs /home/harshraj/COALESCE-Hashed-Perceptron-Cache-Replacement-Policy/simulator/traces/barnes_4t0.champsimtrace
CPU 1 runs /home/harshraj/COALESCE-Hashed-Perceptron-Cache-Replacement-Policy/simulator/traces/barnes_4t1.champsimtrace
CPU 2 runs /home/harshraj/COALESCE-Hashed-Perceptron-Cache-Replacement-Policy/simulator/traces/barnes_4t2.champsimtrace
CPU 3 runs /home/harshraj/COALESCE-Hashed-Perceptron-Cache-Replacement-Policy/simulator/traces/barnes_4t3.champsimtrace
CPU 4 runs /home/harshraj/COALESCE-Hashed-Perceptron-Cache-Replacement-Policy/simulator/traces/barnes_4t0.champsimtrace
CPU 5 runs /home/harshraj/COALESCE-Hashed-Perceptron-Cache-Replacement-Policy/simulator/traces/barnes_4t1.champsimtrace
CPU 6 runs /home/harshraj/COALESCE-Hashed-Perceptron-Cache-Replacement-Policy/simulator/traces/barnes_4t2.champsimtrace
CPU 7 runs /home/harshraj/COALESCE-Hashed-Perceptron-Cache-Replacement-Policy/simulator/traces/barnes_4t3.champsimtrace

Total Simulation Statistics (not including warmup)

CPU 7 cumulative IPC: 4 instructions: 644688900 cycles: 161179842
CPU 7 Branch Prediction Accuracy: -% MPKI: 0 Average ROB Occupancy at Mispredict: -
Branch type MPKI
BRANCH_DIRECT_JUMP: 0
BRANCH_INDIRECT: 0
BRANCH_CONDITIONAL: 0
BRANCH_DIRECT_CALL: 0
BRANCH_INDIRECT_CALL: 0
BRANCH_RETURN: 0


CPU 6 cumulative IPC: 4 instructions: 644689138 cycles: 161179842
CPU 6 Branch Prediction Accuracy: -% MPKI: 0 Average ROB Occupancy at Mispredict: -
Branch type MPKI
BRANCH_DIRECT_JUMP: 0
BRANCH_INDIRECT: 0
BRANCH_CONDITIONAL: 0
BRANCH_DIRECT_CALL: 0
BRANCH_INDIRECT_CALL: 0
BRANCH_RETURN: 0


CPU 5 cumulative IPC: 1.897 instructions: 305690134 cycles: 161179842
CPU 5 Branch Prediction Accuracy: -% MPKI: 0 Average ROB Occupancy at Mispredict: -
Branch type MPKI
BRANCH_DIRECT_JUMP: 0
BRANCH_INDIRECT: 0
BRANCH_CONDITIONAL: 0
BRANCH_DIRECT_CALL: 0
BRANCH_INDIRECT_CALL: 0
BRANCH_RETURN: 0


CPU 4 cumulative IPC: 0.6204 instructions: 100000000 cycles: 161179842
CPU 4 Branch Prediction Accuracy: -% MPKI: 0 Average ROB Occupancy at Mispredict: -
Branch type MPKI
BRANCH_DIRECT_JUMP: 0
BRANCH_INDIRECT: 0
BRANCH_CONDITIONAL: 0
BRANCH_DIRECT_CALL: 0
BRANCH_INDIRECT_CALL: 0
BRANCH_RETURN: 0


CPU 3 cumulative IPC: 4 instructions: 644688152 cycles: 161179842
CPU 3 Branch Prediction Accuracy: -% MPKI: 0 Average ROB Occupancy at Mispredict: -
Branch type MPKI
BRANCH_DIRECT_JUMP: 0
BRANCH_INDIRECT: 0
BRANCH_CONDITIONAL: 0
BRANCH_DIRECT_CALL: 0
BRANCH_INDIRECT_CALL: 0
BRANCH_RETURN: 0


CPU 2 cumulative IPC: 4 instructions: 644689078 cycles: 161179842
CPU 2 Branch Prediction Accuracy: -% MPKI: 0 Average ROB Occupancy at Mispredict: -
Branch type MPKI
BRANCH_DIRECT_JUMP: 0
BRANCH_INDIRECT: 0
BRANCH_CONDITIONAL: 0
BRANCH_DIRECT_CALL: 0
BRANCH_INDIRECT_CALL: 0
BRANCH_RETURN: 0


CPU 1 cumulative IPC: 1.893 instructions: 305103525 cycles: 161179842
CPU 1 Branch Prediction Accuracy: -% MPKI: 0 Average ROB Occupancy at Mispredict: -
Branch type MPKI
BRANCH_DIRECT_JUMP: 0
BRANCH_INDIRECT: 0
BRANCH_CONDITIONAL: 0
BRANCH_DIRECT_CALL: 0
BRANCH_INDIRECT_CALL: 0
BRANCH_RETURN: 0


CPU 0 cumulative IPC: 0.6204 instructions: 100000338 cycles: 161179842
CPU 0 Branch Prediction Accuracy: -% MPKI: 0 Average ROB Occupancy at Mispredict: -
Branch type MPKI
BRANCH_DIRECT_JUMP: 0
BRANCH_INDIRECT: 0
BRANCH_CONDITIONAL: 0
BRANCH_DIRECT_CALL: 0
BRANCH_INDIRECT_CALL: 0
BRANCH_RETURN: 0

cpu7->cpu7_STLB TOTAL        ACCESS:         18 HIT:          8 MISS:         10 MSHR_MERGE:          0
cpu7->cpu7_STLB LOAD         ACCESS:         18 HIT:          8 MISS:         10 MSHR_MERGE:          0
cpu7->cpu7_STLB RFO          ACCESS:          0 HIT:          0 MISS:          0 MSHR_MERGE:          0
cpu7->cpu7_STLB PREFETCH     ACCESS:          0 HIT:          0 MISS:          0 MSHR_MERGE:          0
cpu7->cpu7_STLB WRITE        ACCESS:          0 HIT:          0 MISS:          0 MSHR_MERGE:          0
cpu7->cpu7_STLB TRANSLATION  ACCESS:          0 HIT:          0 MISS:          0 MSHR_MERGE:          0
cpu7->cpu7_STLB PREFETCH REQUESTED:          0 ISSUED:          0 USEFUL:          0 USELESS:          0
cpu7->cpu7_STLB AVERAGE MISS LATENCY: 660.2 cycles
cpu7_STLB COHERENCE INVALIDATIONS:          0
cpu7_STLB COHERENCE WRITE-HIT OTHER-SHARER EVENTS:          0
cpu7->cpu7_L2C TOTAL        ACCESS:         58 HIT:          4 MISS:         54 MSHR_MERGE:          0
cpu7->cpu7_L2C LOAD         ACCESS:         38 HIT:          4 MISS:         34 MSHR_MERGE:          0
cpu7->cpu7_L2C RFO          ACCESS:          0 HIT:          0 MISS:          0 MSHR_MERGE:          0
cpu7->cpu7_L2C PREFETCH     ACCESS:          0 HIT:          0 MISS:          0 MSHR_MERGE:          0
cpu7->cpu7_L2C WRITE        ACCESS:          0 HIT:          0 MISS:          0 MSHR_MERGE:          0
cpu7->cpu7_L2C TRANSLATION  ACCESS:         20 HIT:          0 MISS:         20 MSHR_MERGE:          0
cpu7->cpu7_L2C PREFETCH REQUESTED:          0 ISSUED:          0 USEFUL:          0 USELESS:          0
cpu7->cpu7_L2C AVERAGE MISS LATENCY: 226.6 cycles
cpu7_L2C COHERENCE INVALIDATIONS:          0
cpu7_L2C COHERENCE WRITE-HIT OTHER-SHARER EVENTS:          0
cpu7->cpu7_L1I TOTAL        ACCESS:   92551738 HIT:   92551685 MISS:         53 MSHR_MERGE:         15
cpu7->cpu7_L1I LOAD         ACCESS:   92551738 HIT:   92551685 MISS:         53 MSHR_MERGE:         15
cpu7->cpu7_L1I RFO          ACCESS:          0 HIT:          0 MISS:          0 MSHR_MERGE:          0
cpu7->cpu7_L1I PREFETCH     ACCESS:          0 HIT:          0 MISS:          0 MSHR_MERGE:          0
cpu7->cpu7_L1I WRITE        ACCESS:          0 HIT:          0 MISS:          0 MSHR_MERGE:          0
cpu7->cpu7_L1I TRANSLATION  ACCESS:          0 HIT:          0 MISS:          0 MSHR_MERGE:          0
cpu7->cpu7_L1I PREFETCH REQUESTED:          0 ISSUED:          0 USEFUL:          0 USELESS:          0
cpu7->cpu7_L1I AVERAGE MISS LATENCY: 221.5 cycles
cpu7_L1I COHERENCE INVALIDATIONS:          0
cpu7_L1I COHERENCE WRITE-HIT OTHER-SHARER EVENTS:          0
cpu7->cpu7_L1D TOTAL        ACCESS:         20 HIT:          0 MISS:         20 MSHR_MERGE:          0
cpu7->cpu7_L1D LOAD         ACCESS:          0 HIT:          0 MISS:          0 MSHR_MERGE:          0
cpu7->cpu7_L1D RFO          ACCESS:          0 HIT:          0 MISS:          0 MSHR_MERGE:          0
cpu7->cpu7_L1D PREFETCH     ACCESS:          0 HIT:          0 MISS:          0 MSHR_MERGE:          0
cpu7->cpu7_L1D WRITE        ACCESS:          0 HIT:          0 MISS:          0 MSHR_MERGE:          0
cpu7->cpu7_L1D TRANSLATION  ACCESS:         20 HIT:          0 MISS:         20 MSHR_MERGE:          0
cpu7->cpu7_L1D PREFETCH REQUESTED:          0 ISSUED:          0 USEFUL:          0 USELESS:          0
cpu7->cpu7_L1D AVERAGE MISS LATENCY: 214.1 cycles
cpu7_L1D COHERENCE INVALIDATIONS:          0
cpu7_L1D COHERENCE WRITE-HIT OTHER-SHARER EVENTS:          0
cpu7->cpu7_ITLB TOTAL        ACCESS:   74600178 HIT:   74600144 MISS:         34 MSHR_MERGE:         16
cpu7->cpu7_ITLB LOAD         ACCESS:   74600178 HIT:   74600144 MISS:         34 MSHR_MERGE:         16
cpu7->cpu7_ITLB RFO          ACCESS:          0 HIT:          0 MISS:          0 MSHR_MERGE:          0
cpu7->cpu7_ITLB PREFETCH     ACCESS:          0 HIT:          0 MISS:          0 MSHR_MERGE:          0
cpu7->cpu7_ITLB WRITE        ACCESS:          0 HIT:          0 MISS:          0 MSHR_MERGE:          0
cpu7->cpu7_ITLB TRANSLATION  ACCESS:          0 HIT:          0 MISS:          0 MSHR_MERGE:          0
cpu7->cpu7_ITLB PREFETCH REQUESTED:          0 ISSUED:          0 USEFUL:          0 USELESS:          0
cpu7->cpu7_ITLB AVERAGE MISS LATENCY: 371.3 cycles
cpu7_ITLB COHERENCE INVALIDATIONS:          0
cpu7_ITLB COHERENCE WRITE-HIT OTHER-SHARER EVENTS:          0
cpu7_DTLB COHERENCE INVALIDATIONS:          0
cpu7_DTLB COHERENCE WRITE-HIT OTHER-SHARER EVENTS:          0
cpu6->cpu6_STLB TOTAL        ACCESS:         17 HIT:          7 MISS:         10 MSHR_MERGE:          0
cpu6->cpu6_STLB LOAD         ACCESS:         17 HIT:          7 MISS:         10 MSHR_MERGE:          0
cpu6->cpu6_STLB RFO          ACCESS:          0 HIT:          0 MISS:          0 MSHR_MERGE:          0
cpu6->cpu6_STLB PREFETCH     ACCESS:          0 HIT:          0 MISS:          0 MSHR_MERGE:          0
cpu6->cpu6_STLB WRITE        ACCESS:          0 HIT:          0 MISS:          0 MSHR_MERGE:          0
cpu6->cpu6_STLB TRANSLATION  ACCESS:          0 HIT:          0 MISS:          0 MSHR_MERGE:          0
cpu6->cpu6_STLB PREFETCH REQUESTED:          0 ISSUED:          0 USEFUL:          0 USELESS:          0
cpu6->cpu6_STLB AVERAGE MISS LATENCY: 720.2 cycles
cpu6_STLB COHERENCE INVALIDATIONS:          0
cpu6_STLB COHERENCE WRITE-HIT OTHER-SHARER EVENTS:          0
cpu6->cpu6_L2C TOTAL        ACCESS:         58 HIT:          4 MISS:         54 MSHR_MERGE:          0
cpu6->cpu6_L2C LOAD         ACCESS:         38 HIT:          4 MISS:         34 MSHR_MERGE:          0
cpu6->cpu6_L2C RFO          ACCESS:          0 HIT:          0 MISS:          0 MSHR_MERGE:          0
cpu6->cpu6_L2C PREFETCH     ACCESS:          0 HIT:          0 MISS:          0 MSHR_MERGE:          0
cpu6->cpu6_L2C WRITE        ACCESS:          0 HIT:          0 MISS:          0 MSHR_MERGE:          0
cpu6->cpu6_L2C TRANSLATION  ACCESS:         20 HIT:          0 MISS:         20 MSHR_MERGE:          0
cpu6->cpu6_L2C PREFETCH REQUESTED:          0 ISSUED:          0 USEFUL:          0 USELESS:          0
cpu6->cpu6_L2C AVERAGE MISS LATENCY: 193.7 cycles
cpu6_L2C COHERENCE INVALIDATIONS:          0
cpu6_L2C COHERENCE WRITE-HIT OTHER-SHARER EVENTS:          0
cpu6->cpu6_L1I TOTAL        ACCESS:   93986268 HIT:   93986212 MISS:         56 MSHR_MERGE:         18
cpu6->cpu6_L1I LOAD         ACCESS:   93986268 HIT:   93986212 MISS:         56 MSHR_MERGE:         18
cpu6->cpu6_L1I RFO          ACCESS:          0 HIT:          0 MISS:          0 MSHR_MERGE:          0
cpu6->cpu6_L1I PREFETCH     ACCESS:          0 HIT:          0 MISS:          0 MSHR_MERGE:          0
cpu6->cpu6_L1I WRITE        ACCESS:          0 HIT:          0 MISS:          0 MSHR_MERGE:          0
cpu6->cpu6_L1I TRANSLATION  ACCESS:          0 HIT:          0 MISS:          0 MSHR_MERGE:          0
cpu6->cpu6_L1I PREFETCH REQUESTED:          0 ISSUED:          0 USEFUL:          0 USELESS:          0
cpu6->cpu6_L1I AVERAGE MISS LATENCY: 153.6 cycles
cpu6_L1I COHERENCE INVALIDATIONS:          0
cpu6_L1I COHERENCE WRITE-HIT OTHER-SHARER EVENTS:          0
cpu6->cpu6_L1D TOTAL        ACCESS:         20 HIT:          0 MISS:         20 MSHR_MERGE:          0
cpu6->cpu6_L1D LOAD         ACCESS:          0 HIT:          0 MISS:          0 MSHR_MERGE:          0
cpu6->cpu6_L1D RFO          ACCESS:          0 HIT:          0 MISS:          0 MSHR_MERGE:          0
cpu6->cpu6_L1D PREFETCH     ACCESS:          0 HIT:          0 MISS:          0 MSHR_MERGE:          0
cpu6->cpu6_L1D WRITE        ACCESS:          0 HIT:          0 MISS:          0 MSHR_MERGE:          0
cpu6->cpu6_L1D TRANSLATION  ACCESS:         20 HIT:          0 MISS:         20 MSHR_MERGE:          0
cpu6->cpu6_L1D PREFETCH REQUESTED:          0 ISSUED:          0 USEFUL:          0 USELESS:          0
cpu6->cpu6_L1D AVERAGE MISS LATENCY: 254.1 cycles
cpu6_L1D COHERENCE INVALIDATIONS:          0
[...]
cpu2->cpu2_STLB PREFETCH REQUESTED:          0 ISSUED:          0 USEFUL:          0 USELESS:          0
cpu2->cpu2_STLB AVERAGE MISS LATENCY: 685.3 cycles
cpu2_STLB COHERENCE INVALIDATIONS:          0
cpu2_STLB COHERENCE WRITE-HIT OTHER-SHARER EVENTS:          0
cpu2->cpu2_L2C TOTAL        ACCESS:         58 HIT:          4 MISS:         54 MSHR_MERGE:          0
cpu2->cpu2_L2C LOAD         ACCESS:         38 HIT:          4 MISS:         34 MSHR_MERGE:          0
cpu2->cpu2_L2C RFO          ACCESS:          0 HIT:          0 MISS:          0 MSHR_MERGE:          0
cpu2->cpu2_L2C PREFETCH     ACCESS:          0 HIT:          0 MISS:          0 MSHR_MERGE:          0
cpu2->cpu2_L2C WRITE        ACCESS:          0 HIT:          0 MISS:          0 MSHR_MERGE:          0
cpu2->cpu2_L2C TRANSLATION  ACCESS:         20 HIT:          0 MISS:         20 MSHR_MERGE:          0
cpu2->cpu2_L2C PREFETCH REQUESTED:          0 ISSUED:          0 USEFUL:          0 USELESS:          0
cpu2->cpu2_L2C AVERAGE MISS LATENCY: 219 cycles
cpu2_L2C COHERENCE INVALIDATIONS:          0
cpu2_L2C COHERENCE WRITE-HIT OTHER-SHARER EVENTS:          0
cpu2->cpu2_L1I TOTAL        ACCESS:   93136982 HIT:   93136929 MISS:         53 MSHR_MERGE:         15
cpu2->cpu2_L1I LOAD         ACCESS:   93136982 HIT:   93136929 MISS:         53 MSHR_MERGE:         15
cpu2->cpu2_L1I RFO          ACCESS:          0 HIT:          0 MISS:          0 MSHR_MERGE:          0
cpu2->cpu2_L1I PREFETCH     ACCESS:          0 HIT:          0 MISS:          0 MSHR_MERGE:          0
cpu2->cpu2_L1I WRITE        ACCESS:          0 HIT:          0 MISS:          0 MSHR_MERGE:          0
cpu2->cpu2_L1I TRANSLATION  ACCESS:          0 HIT:          0 MISS:          0 MSHR_MERGE:          0
cpu2->cpu2_L1I PREFETCH REQUESTED:          0 ISSUED:          0 USEFUL:          0 USELESS:          0
cpu2->cpu2_L1I AVERAGE MISS LATENCY: 198.8 cycles
cpu2_L1I COHERENCE INVALIDATIONS:          0
cpu2_L1I COHERENCE WRITE-HIT OTHER-SHARER EVENTS:          0
cpu2->cpu2_L1D TOTAL        ACCESS:         20 HIT:          0 MISS:         20 MSHR_MERGE:          0
cpu2->cpu2_L1D LOAD         ACCESS:          0 HIT:          0 MISS:          0 MSHR_MERGE:          0
cpu2->cpu2_L1D RFO          ACCESS:          0 HIT:          0 MISS:          0 MSHR_MERGE:          0
cpu2->cpu2_L1D PREFETCH     ACCESS:          0 HIT:          0 MISS:          0 MSHR_MERGE:          0
cpu2->cpu2_L1D WRITE        ACCESS:          0 HIT:          0 MISS:          0 MSHR_MERGE:          0
cpu2->cpu2_L1D TRANSLATION  ACCESS:         20 HIT:          0 MISS:         20 MSHR_MERGE:          0
cpu2->cpu2_L1D PREFETCH REQUESTED:          0 ISSUED:          0 USEFUL:          0 USELESS:          0
cpu2->cpu2_L1D AVERAGE MISS LATENCY: 236.7 cycles
cpu2_L1D COHERENCE INVALIDATIONS:          0
cpu2_L1D COHERENCE WRITE-HIT OTHER-SHARER EVENTS:          0
cpu2->cpu2_ITLB TOTAL        ACCESS:   74398067 HIT:   74398039 MISS:         28 MSHR_MERGE:         11
cpu2->cpu2_ITLB LOAD         ACCESS:   74398067 HIT:   74398039 MISS:         28 MSHR_MERGE:         11
cpu2->cpu2_ITLB RFO          ACCESS:          0 HIT:          0 MISS:          0 MSHR_MERGE:          0
cpu2->cpu2_ITLB PREFETCH     ACCESS:          0 HIT:          0 MISS:          0 MSHR_MERGE:          0
cpu2->cpu2_ITLB WRITE        ACCESS:          0 HIT:          0 MISS:          0 MSHR_MERGE:          0
cpu2->cpu2_ITLB TRANSLATION  ACCESS:          0 HIT:          0 MISS:          0 MSHR_MERGE:          0
cpu2->cpu2_ITLB PREFETCH REQUESTED:          0 ISSUED:          0 USEFUL:          0 USELESS:          0
cpu2->cpu2_ITLB AVERAGE MISS LATENCY: 407.7 cycles
cpu2_ITLB COHERENCE INVALIDATIONS:          0
cpu2_ITLB COHERENCE WRITE-HIT OTHER-SHARER EVENTS:          0
cpu2_DTLB COHERENCE INVALIDATIONS:          0
cpu2_DTLB COHERENCE WRITE-HIT OTHER-SHARER EVENTS:          0
cpu1->cpu1_STLB TOTAL        ACCESS:    1139448 HIT:    1139280 MISS:        168 MSHR_MERGE:          0
cpu1->cpu1_STLB LOAD         ACCESS:    1139448 HIT:    1139280 MISS:        168 MSHR_MERGE:          0
cpu1->cpu1_STLB RFO          ACCESS:          0 HIT:          0 MISS:          0 MSHR_MERGE:          0
cpu1->cpu1_STLB PREFETCH     ACCESS:          0 HIT:          0 MISS:          0 MSHR_MERGE:          0
cpu1->cpu1_STLB WRITE        ACCESS:          0 HIT:          0 MISS:          0 MSHR_MERGE:          0
cpu1->cpu1_STLB TRANSLATION  ACCESS:          0 HIT:          0 MISS:          0 MSHR_MERGE:          0
cpu1->cpu1_STLB PREFETCH REQUESTED:          0 ISSUED:          0 USEFUL:          0 USELESS:          0
cpu1->cpu1_STLB AVERAGE MISS LATENCY: 595.9 cycles
cpu1_STLB COHERENCE INVALIDATIONS:          0
cpu1_STLB COHERENCE WRITE-HIT OTHER-SHARER EVENTS:          0
cpu1->cpu1_L2C TOTAL        ACCESS:    3398859 HIT:    3108149 MISS:     290710 MSHR_MERGE:          0
cpu1->cpu1_L2C LOAD         ACCESS:    3398662 HIT:    3108149 MISS:     290513 MSHR_MERGE:          0
cpu1->cpu1_L2C RFO          ACCESS:          0 HIT:          0 MISS:          0 MSHR_MERGE:          0
cpu1->cpu1_L2C PREFETCH     ACCESS:          0 HIT:          0 MISS:          0 MSHR_MERGE:          0
cpu1->cpu1_L2C WRITE        ACCESS:          0 HIT:          0 MISS:          0 MSHR_MERGE:          0
cpu1->cpu1_L2C TRANSLATION  ACCESS:        197 HIT:          0 MISS:        197 MSHR_MERGE:          0
cpu1->cpu1_L2C PREFETCH REQUESTED:          0 ISSUED:          0 USEFUL:          0 USELESS:          0
cpu1->cpu1_L2C AVERAGE MISS LATENCY: 115.8 cycles
cpu1_L2C COHERENCE INVALIDATIONS:          0
cpu1_L2C COHERENCE WRITE-HIT OTHER-SHARER EVENTS:          0
cpu1->cpu1_L1I TOTAL        ACCESS:   64090687 HIT:   60637823 MISS:    3452864 MSHR_MERGE:      54202
cpu1->cpu1_L1I LOAD         ACCESS:   64090687 HIT:   60637823 MISS:    3452864 MSHR_MERGE:      54202
cpu1->cpu1_L1I RFO          ACCESS:          0 HIT:          0 MISS:          0 MSHR_MERGE:          0
cpu1->cpu1_L1I PREFETCH     ACCESS:          0 HIT:          0 MISS:          0 MSHR_MERGE:          0
cpu1->cpu1_L1I WRITE        ACCESS:          0 HIT:          0 MISS:          0 MSHR_MERGE:          0
cpu1->cpu1_L1I TRANSLATION  ACCESS:          0 HIT:          0 MISS:          0 MSHR_MERGE:          0
cpu1->cpu1_L1I PREFETCH REQUESTED:          0 ISSUED:          0 USEFUL:          0 USELESS:          0
cpu1->cpu1_L1I AVERAGE MISS LATENCY: 16.98 cycles
cpu1_L1I COHERENCE INVALIDATIONS:          0
cpu1_L1I COHERENCE WRITE-HIT OTHER-SHARER EVENTS:          0
cpu1->cpu1_L1D TOTAL        ACCESS:        339 HIT:        142 MISS:        197 MSHR_MERGE:          0
cpu1->cpu1_L1D LOAD         ACCESS:          0 HIT:          0 MISS:          0 MSHR_MERGE:          0
cpu1->cpu1_L1D RFO          ACCESS:          0 HIT:          0 MISS:          0 MSHR_MERGE:          0
cpu1->cpu1_L1D PREFETCH     ACCESS:          0 HIT:          0 MISS:          0 MSHR_MERGE:          0
cpu1->cpu1_L1D WRITE        ACCESS:          0 HIT:          0 MISS:          0 MSHR_MERGE:          0
cpu1->cpu1_L1D TRANSLATION  ACCESS:        339 HIT:        142 MISS:        197 MSHR_MERGE:          0
cpu1->cpu1_L1D PREFETCH REQUESTED:          0 ISSUED:          0 USEFUL:          0 USELESS:          0
cpu1->cpu1_L1D AVERAGE MISS LATENCY: 198.1 cycles
cpu1_L1D COHERENCE INVALIDATIONS:          0
cpu1_L1D COHERENCE WRITE-HIT OTHER-SHARER EVENTS:          0
cpu1->cpu1_ITLB TOTAL        ACCESS:   61598591 HIT:   60397925 MISS:    1200666 MSHR_MERGE:      61218
cpu1->cpu1_ITLB LOAD         ACCESS:   61598591 HIT:   60397925 MISS:    1200666 MSHR_MERGE:      61218
cpu1->cpu1_ITLB RFO          ACCESS:          0 HIT:          0 MISS:          0 MSHR_MERGE:          0
cpu1->cpu1_ITLB PREFETCH     ACCESS:          0 HIT:          0 MISS:          0 MSHR_MERGE:          0
cpu1->cpu1_ITLB WRITE        ACCESS:          0 HIT:          0 MISS:          0 MSHR_MERGE:          0
cpu1->cpu1_ITLB TRANSLATION  ACCESS:          0 HIT:          0 MISS:          0 MSHR_MERGE:          0
cpu1->cpu1_ITLB PREFETCH REQUESTED:          0 ISSUED:          0 USEFUL:          0 USELESS:          0
cpu1->cpu1_ITLB AVERAGE MISS LATENCY: 4.088 cycles
cpu1_ITLB COHERENCE INVALIDATIONS:          0
cpu1_ITLB COHERENCE WRITE-HIT OTHER-SHARER EVENTS:          0
cpu1_DTLB COHERENCE INVALIDATIONS:          0
cpu1_DTLB COHERENCE WRITE-HIT OTHER-SHARER EVENTS:          0
cpu0->cpu0_STLB TOTAL        ACCESS:    3021621 HIT:    3008685 MISS:      12936 MSHR_MERGE:          0
cpu0->cpu0_STLB LOAD         ACCESS:    3021621 HIT:    3008685 MISS:      12936 MSHR_MERGE:          0
cpu0->cpu0_STLB RFO          ACCESS:          0 HIT:          0 MISS:          0 MSHR_MERGE:          0
cpu0->cpu0_STLB PREFETCH     ACCESS:          0 HIT:          0 MISS:          0 MSHR_MERGE:          0
cpu0->cpu0_STLB WRITE        ACCESS:          0 HIT:          0 MISS:          0 MSHR_MERGE:          0
cpu0->cpu0_STLB TRANSLATION  ACCESS:          0 HIT:          0 MISS:          0 MSHR_MERGE:          0
cpu0->cpu0_STLB PREFETCH REQUESTED:          0 ISSUED:          0 USEFUL:          0 USELESS:          0
cpu0->cpu0_STLB AVERAGE MISS LATENCY: 276.2 cycles
cpu0_STLB COHERENCE INVALIDATIONS:          0
cpu0_STLB COHERENCE WRITE-HIT OTHER-SHARER EVENTS:          0
cpu0->cpu0_L2C TOTAL        ACCESS:    4710085 HIT:    4299991 MISS:     410094 MSHR_MERGE:          0
cpu0->cpu0_L2C LOAD         ACCESS:    3759341 HIT:    3415074 MISS:     344267 MSHR_MERGE:          0
cpu0->cpu0_L2C RFO          ACCESS:     343398 HIT:     291785 MISS:      51613 MSHR_MERGE:          0
cpu0->cpu0_L2C PREFETCH     ACCESS:          0 HIT:          0 MISS:          0 MSHR_MERGE:          0
cpu0->cpu0_L2C WRITE        ACCESS:     579161 HIT:     578896 MISS:        265 MSHR_MERGE:          0
cpu0->cpu0_L2C TRANSLATION  ACCESS:      28185 HIT:      14236 MISS:      13949 MSHR_MERGE:          0
cpu0->cpu0_L2C PREFETCH REQUESTED:          0 ISSUED:          0 USEFUL:          0 USELESS:          0
cpu0->cpu0_L2C AVERAGE MISS LATENCY: 142.9 cycles
cpu0_L2C COHERENCE INVALIDATIONS:          0
cpu0_L2C COHERENCE WRITE-HIT OTHER-SHARER EVENTS:          0
cpu0->cpu0_L1I TOTAL        ACCESS:   25957148 HIT:   25957130 MISS:         18 MSHR_MERGE:          5
cpu0->cpu0_L1I LOAD         ACCESS:   25957148 HIT:   25957130 MISS:         18 MSHR_MERGE:          5
cpu0->cpu0_L1I RFO          ACCESS:          0 HIT:          0 MISS:          0 MSHR_MERGE:          0
cpu0->cpu0_L1I PREFETCH     ACCESS:          0 HIT:          0 MISS:          0 MSHR_MERGE:          0
cpu0->cpu0_L1I WRITE        ACCESS:          0 HIT:          0 MISS:          0 MSHR_MERGE:          0
cpu0->cpu0_L1I TRANSLATION  ACCESS:          0 HIT:          0 MISS:          0 MSHR_MERGE:          0
cpu0->cpu0_L1I PREFETCH REQUESTED:          0 ISSUED:          0 USEFUL:          0 USELESS:          0
cpu0->cpu0_L1I AVERAGE MISS LATENCY: 250.3 cycles
cpu0_L1I COHERENCE INVALIDATIONS:          0
cpu0_L1I COHERENCE WRITE-HIT OTHER-SHARER EVENTS:          0
cpu0->cpu0_L1D TOTAL        ACCESS:   63846540 HIT:   59636486 MISS:    4210054 MSHR_MERGE:      78850
cpu0->cpu0_L1D LOAD         ACCESS:   16917201 HIT:   13148435 MISS:    3768766 MSHR_MERGE:       9387
cpu0->cpu0_L1D RFO          ACCESS:          0 HIT:          0 MISS:          0 MSHR_MERGE:          0
cpu0->cpu0_L1D PREFETCH     ACCESS:          0 HIT:          0 MISS:          0 MSHR_MERGE:          0
cpu0->cpu0_L1D WRITE        ACCESS:   46898001 HIT:   46484906 MISS:     413095 MSHR_MERGE:      69455
cpu0->cpu0_L1D TRANSLATION  ACCESS:      31338 HIT:       3145 MISS:      28193 MSHR_MERGE:          8
cpu0->cpu0_L1D PREFETCH REQUESTED:          0 ISSUED:          0 USEFUL:          0 USELESS:          0
cpu0->cpu0_L1D AVERAGE MISS LATENCY: 21.28 cycles
cpu0_L1D COHERENCE INVALIDATIONS:          0
cpu0_L1D COHERENCE WRITE-HIT OTHER-SHARER EVENTS:          0
cpu0->cpu0_ITLB TOTAL        ACCESS:   23714632 HIT:   23714632 MISS:          0 MSHR_MERGE:          0
cpu0->cpu0_ITLB LOAD         ACCESS:   23714632 HIT:   23714632 MISS:          0 MSHR_MERGE:          0
cpu0->cpu0_ITLB RFO          ACCESS:          0 HIT:          0 MISS:          0 MSHR_MERGE:          0
cpu0->cpu0_ITLB PREFETCH     ACCESS:          0 HIT:          0 MISS:          0 MSHR_MERGE:          0
cpu0->cpu0_ITLB WRITE        ACCESS:          0 HIT:          0 MISS:          0 MSHR_MERGE:          0
cpu0->cpu0_ITLB TRANSLATION  ACCESS:          0 HIT:          0 MISS:          0 MSHR_MERGE:          0
cpu0->cpu0_ITLB PREFETCH REQUESTED:          0 ISSUED:          0 USEFUL:          0 USELESS:          0
cpu0->cpu0_ITLB AVERAGE MISS LATENCY: - cycles
cpu0_ITLB COHERENCE INVALIDATIONS:          0
cpu0_ITLB COHERENCE WRITE-HIT OTHER-SHARER EVENTS:          0
cpu0->cpu0_DTLB TOTAL        ACCESS:   62010559 HIT:   58817122 MISS:    3193437 MSHR_MERGE:     171816
cpu0->cpu0_DTLB LOAD         ACCESS:   62010559 HIT:   58817122 MISS:    3193437 MSHR_MERGE:     171816
cpu0->cpu0_DTLB RFO          ACCESS:          0 HIT:          0 MISS:          0 MSHR_MERGE:          0
cpu0->cpu0_DTLB PREFETCH     ACCESS:          0 HIT:          0 MISS:          0 MSHR_MERGE:          0
cpu0->cpu0_DTLB WRITE        ACCESS:          0 HIT:          0 MISS:          0 MSHR_MERGE:          0
cpu0->cpu0_DTLB TRANSLATION  ACCESS:          0 HIT:          0 MISS:          0 MSHR_MERGE:          0
cpu0->cpu0_DTLB PREFETCH REQUESTED:          0 ISSUED:          0 USEFUL:          0 USELESS:          0
cpu0->cpu0_DTLB AVERAGE MISS LATENCY: 5.187 cycles
cpu0_DTLB COHERENCE INVALIDATIONS:          0
cpu0_DTLB COHERENCE WRITE-HIT OTHER-SHARER EVENTS:          0
cpu0->LLC TOTAL        ACCESS:     513771 HIT:     205194 MISS:     308577 MSHR_MERGE:      39827
cpu0->LLC LOAD         ACCESS:     344267 HIT:     129622 MISS:     214645 MSHR_MERGE:      33404
cpu0->LLC RFO          ACCESS:      51613 HIT:      22078 MISS:      29535 MSHR_MERGE:       6423
cpu0->LLC PREFETCH     ACCESS:          0 HIT:          0 MISS:          0 MSHR_MERGE:          0
cpu0->LLC WRITE        ACCESS:     103942 HIT:      53372 MISS:      50570 MSHR_MERGE:          0
cpu0->LLC TRANSLATION  ACCESS:      13949 HIT:        122 MISS:      13827 MSHR_MERGE:          0
cpu0->LLC PREFETCH REQUESTED:          0 ISSUED:          0 USEFUL:          0 USELESS:          0
cpu0->LLC AVERAGE MISS LATENCY: 716.1 cycles
cpu1->LLC TOTAL        ACCESS:     290710 HIT:     128927 MISS:     161783 MSHR_MERGE:      25535
cpu1->LLC LOAD         ACCESS:     290513 HIT:     128927 MISS:     161586 MSHR_MERGE:      25535
cpu1->LLC RFO          ACCESS:          0 HIT:          0 MISS:          0 MSHR_MERGE:          0
cpu1->LLC PREFETCH     ACCESS:          0 HIT:          0 MISS:          0 MSHR_MERGE:          0
cpu1->LLC WRITE        ACCESS:          0 HIT:          0 MISS:          0 MSHR_MERGE:          0
cpu1->LLC TRANSLATION  ACCESS:        197 HIT:          0 MISS:        197 MSHR_MERGE:          0
cpu1->LLC PREFETCH REQUESTED:          0 ISSUED:          0 USEFUL:          0 USELESS:          0
cpu1->LLC AVERAGE MISS LATENCY: 2265 cycles
cpu2->LLC TOTAL        ACCESS:         54 HIT:          1 MISS:         53 MSHR_MERGE:          8
cpu2->LLC LOAD         ACCESS:         34 HIT:          1 MISS:         33 MSHR_MERGE:          8
cpu2->LLC RFO          ACCESS:          0 HIT:          0 MISS:          0 MSHR_MERGE:          0
cpu2->LLC PREFETCH     ACCESS:          0 HIT:          0 MISS:          0 MSHR_MERGE:          0
cpu2->LLC WRITE        ACCESS:          0 HIT:          0 MISS:          0 MSHR_MERGE:          0
cpu2->LLC TRANSLATION  ACCESS:         20 HIT:          0 MISS:         20 MSHR_MERGE:          0
cpu2->LLC PREFETCH REQUESTED:          0 ISSUED:          0 USEFUL:          0 USELESS:          0
cpu2->LLC AVERAGE MISS LATENCY: 3.079e+06 cycles
cpu3->LLC TOTAL        ACCESS:         54 HIT:          0 MISS:         54 MSHR_MERGE:         10
cpu3->LLC LOAD         ACCESS:         34 HIT:          0 MISS:         34 MSHR_MERGE:         10
cpu3->LLC RFO          ACCESS:          0 HIT:          0 MISS:          0 MSHR_MERGE:          0
cpu3->LLC PREFETCH     ACCESS:          0 HIT:          0 MISS:          0 MSHR_MERGE:          0
cpu3->LLC WRITE        ACCESS:          0 HIT:          0 MISS:          0 MSHR_MERGE:          0
cpu3->LLC TRANSLATION  ACCESS:         20 HIT:          0 MISS:         20 MSHR_MERGE:          0
cpu3->LLC PREFETCH REQUESTED:          0 ISSUED:          0 USEFUL:          0 USELESS:          0
cpu3->LLC AVERAGE MISS LATENCY: 2.394e+06 cycles
cpu4->LLC TOTAL        ACCESS:     513505 HIT:     224118 MISS:     289387 MSHR_MERGE:     188201
cpu4->LLC LOAD         ACCESS:     344242 HIT:     141764 MISS:     202478 MSHR_MERGE:     165605
cpu4->LLC RFO          ACCESS:      51633 HIT:      22518 MISS:      29115 MSHR_MERGE:      22596
cpu4->LLC PREFETCH     ACCESS:          0 HIT:          0 MISS:          0 MSHR_MERGE:          0
cpu4->LLC WRITE        ACCESS:     103935 HIT:      59721 MISS:      44214 MSHR_MERGE:          0
cpu4->LLC TRANSLATION  ACCESS:      13695 HIT:        115 MISS:      13580 MSHR_MERGE:          0
cpu4->LLC PREFETCH REQUESTED:          0 ISSUED:          0 USEFUL:          0 USELESS:          0
cpu4->LLC AVERAGE MISS LATENCY: 345.4 cycles
cpu5->LLC TOTAL        ACCESS:     291143 HIT:     140689 MISS:     150454 MSHR_MERGE:     123724
cpu5->LLC LOAD         ACCESS:     290946 HIT:     140689 MISS:     150257 MSHR_MERGE:     123724
cpu5->LLC RFO          ACCESS:          0 HIT:          0 MISS:          0 MSHR_MERGE:          0
cpu5->LLC PREFETCH     ACCESS:          0 HIT:          0 MISS:          0 MSHR_MERGE:          0
cpu5->LLC WRITE        ACCESS:          0 HIT:          0 MISS:          0 MSHR_MERGE:          0
cpu5->LLC TRANSLATION  ACCESS:        197 HIT:          0 MISS:        197 MSHR_MERGE:          0
cpu5->LLC PREFETCH REQUESTED:          0 ISSUED:          0 USEFUL:          0 USELESS:          0
cpu5->LLC AVERAGE MISS LATENCY: 690 cycles
cpu6->LLC TOTAL        ACCESS:         54 HIT:          1 MISS:         53 MSHR_MERGE:         25
cpu6->LLC LOAD         ACCESS:         34 HIT:          1 MISS:         33 MSHR_MERGE:         25
cpu6->LLC RFO          ACCESS:          0 HIT:          0 MISS:          0 MSHR_MERGE:          0
cpu6->LLC PREFETCH     ACCESS:          0 HIT:          0 MISS:          0 MSHR_MERGE:          0
cpu6->LLC WRITE        ACCESS:          0 HIT:          0 MISS:          0 MSHR_MERGE:          0
cpu6->LLC TRANSLATION  ACCESS:         20 HIT:          0 MISS:         20 MSHR_MERGE:          0
cpu6->LLC PREFETCH REQUESTED:          0 ISSUED:          0 USEFUL:          0 USELESS:          0
cpu6->LLC AVERAGE MISS LATENCY: 1.916e+06 cycles
cpu7->LLC TOTAL        ACCESS:         54 HIT:          6 MISS:         48 MSHR_MERGE:         18
cpu7->LLC LOAD         ACCESS:         34 HIT:          6 MISS:         28 MSHR_MERGE:         18
cpu7->LLC RFO          ACCESS:          0 HIT:          0 MISS:          0 MSHR_MERGE:          0
cpu7->LLC PREFETCH     ACCESS:          0 HIT:          0 MISS:          0 MSHR_MERGE:          0
cpu7->LLC WRITE        ACCESS:          0 HIT:          0 MISS:          0 MSHR_MERGE:          0
cpu7->LLC TRANSLATION  ACCESS:         20 HIT:          0 MISS:         20 MSHR_MERGE:          0
cpu7->LLC PREFETCH REQUESTED:          0 ISSUED:          0 USEFUL:          0 USELESS:          0
cpu7->LLC AVERAGE MISS LATENCY: 2.268e+06 cycles
LLC COHERENCE INVALIDATIONS:     172604
LLC COHERENCE WRITE-HIT OTHER-SHARER EVENTS:     112487

DRAM Statistics

Channel 0 RQ ROW_BUFFER_HIT:       3051
  ROW_BUFFER_MISS:     435102
  AVG DBUS CONGESTED CYCLE: 13.16
Channel 0 WQ ROW_BUFFER_HIT:      17535
  ROW_BUFFER_MISS:      77524
  FULL:         41
Channel 0 REFRESHES ISSUED:      13432

VMEM ALIASED FILLS (cross-CPU shared-page hits): 26700
