[VMEM] WARNING: physical memory size is smaller than virtual memory size.

*** ChampSim Multicore Out-of-Order Simulator ***
Warmup Instructions: 50000000
Simulation Instructions: 100000000
Number of CPUs: 8
Page size: 4096

Off-chip DRAM Size: 16 GiB Channels: 1 Width: 64-bit Data Rate: 3205 MT/s
Heartbeat CPU 3 instructions: 10000002 cycles: 2508105 heartbeat IPC: 3.987 cumulative IPC: 3.987 (Simulation time: 00 hr 10 min 59 sec)
Heartbeat CPU 2 instructions: 10000003 cycles: 2508181 heartbeat IPC: 3.987 cumulative IPC: 3.987 (Simulation time: 00 hr 10 min 59 sec)
Heartbeat CPU 6 instructions: 10000001 cycles: 2508181 heartbeat IPC: 3.987 cumulative IPC: 3.987 (Simulation time: 00 hr 10 min 59 sec)
Heartbeat CPU 7 instructions: 10000002 cycles: 2508302 heartbeat IPC: 3.987 cumulative IPC: 3.987 (Simulation time: 00 hr 10 min 59 sec)
Heartbeat CPU 0 instructions: 10000000 cycles: 2980103 heartbeat IPC: 3.356 cumulative IPC: 3.356 (Simulation time: 00 hr 12 min 51 sec)
Heartbeat CPU 4 instructions: 10000003 cycles: 2980255 heartbeat IPC: 3.355 cumulative IPC: 3.355 (Simulation time: 00 hr 12 min 51 sec)
Heartbeat CPU 1 instructions: 10000002 cycles: 4086080 heartbeat IPC: 2.447 cumulative IPC: 2.447 (Simulation time: 00 hr 17 min 05 sec)
Heartbeat CPU 5 instructions: 10000002 cycles: 4089753 heartbeat IPC: 2.445 cumulative IPC: 2.445 (Simulation time: 00 hr 17 min 06 sec)
Heartbeat CPU 3 instructions: 20000002 cycles: 5008105 heartbeat IPC: 4 cumulative IPC: 3.994 (Simulation time: 00 hr 20 min 43 sec)
Heartbeat CPU 2 instructions: 20000003 cycles: 5008181 heartbeat IPC: 4 cumulative IPC: 3.993 (Simulation time: 00 hr 20 min 43 sec)
Heartbeat CPU 6 instructions: 20000001 cycles: 5008181 heartbeat IPC: 4 cumulative IPC: 3.993 (Simulation time: 00 hr 20 min 43 sec)
Heartbeat CPU 7 instructions: 20000002 cycles: 5008302 heartbeat IPC: 4 cumulative IPC: 3.993 (Simulation time: 00 hr 20 min 43 sec)
Heartbeat CPU 3 instructions: 30000002 cycles: 7508105 heartbeat IPC: 4 cumulative IPC: 3.996 (Simulation time: 00 hr 30 min 21 sec)
Heartbeat CPU 2 instructions: 30000003 cycles: 7508181 heartbeat IPC: 4 cumulative IPC: 3.996 (Simulation time: 00 hr 30 min 21 sec)
Heartbeat CPU 6 instructions: 30000001 cycles: 7508181 heartbeat IPC: 4 cumulative IPC: 3.996 (Simulation time: 00 hr 30 min 21 sec)
Heartbeat CPU 7 instructions: 30000002 cycles: 7508302 heartbeat IPC: 4 cumulative IPC: 3.996 (Simulation time: 00 hr 30 min 21 sec)
Heartbeat CPU 1 instructions: 20000004 cycles: 7760096 heartbeat IPC: 2.722 cumulative IPC: 2.577 (Simulation time: 00 hr 31 min 19 sec)
Heartbeat CPU 5 instructions: 20000004 cycles: 7778161 heartbeat IPC: 2.711 cumulative IPC: 2.571 (Simulation time: 00 hr 31 min 23 sec)
Heartbeat CPU 3 instructions: 40000002 cycles: 10008105 heartbeat IPC: 4 cumulative IPC: 3.997 (Simulation time: 00 hr 39 min 59 sec)
Heartbeat CPU 2 instructions: 40000003 cycles: 10008181 heartbeat IPC: 4 cumulative IPC: 3.997 (Simulation time: 00 hr 39 min 59 sec)
Heartbeat CPU 6 instructions: 40000001 cycles: 10008181 heartbeat IPC: 4 cumulative IPC: 3.997 (Simulation time: 00 hr 39 min 59 sec)
Heartbeat CPU 7 instructions: 40000002 cycles: 10008302 heartbeat IPC: 4 cumulative IPC: 3.997 (Simulation time: 00 hr 39 min 59 sec)
Heartbeat CPU 1 instructions: 30000005 cycles: 11456271 heartbeat IPC: 2.705 cumulative IPC: 2.619 (Simulation time: 00 hr 45 min 24 sec)
Heartbeat CPU 5 instructions: 30000005 cycles: 11488945 heartbeat IPC: 2.695 cumulative IPC: 2.611 (Simulation time: 00 hr 45 min 32 sec)
Heartbeat CPU 3 instructions: 50000002 cycles: 12508105 heartbeat IPC: 4 cumulative IPC: 3.997 (Simulation time: 00 hr 49 min 24 sec)
Warmup finished CPU 3 instructions: 50000002 cycles: 12508105 cumulative IPC: 3.997 (Simulation time: 00 hr 49 min 24 sec)
Heartbeat CPU 2 instructions: 50000003 cycles: 12508181 heartbeat IPC: 4 cumulative IPC: 3.997 (Simulation time: 00 hr 49 min 24 sec)
Heartbeat CPU 6 instructions: 50000001 cycles: 12508181 heartbeat IPC: 4 cumulative IPC: 3.997 (Simulation time: 00 hr 49 min 24 sec)
Warmup finished CPU 6 instructions: 50000001 cycles: 12508181 cumulative IPC: 3.997 (Simulation time: 00 hr 49 min 24 sec)
Warmup finished CPU 2 instructions: 50000003 cycles: 12508181 cumulative IPC: 3.997 (Simulation time: 00 hr 49 min 24 sec)
Heartbeat CPU 7 instructions: 50000002 cycles: 12508302 heartbeat IPC: 4 cumulative IPC: 3.997 (Simulation time: 00 hr 49 min 24 sec)
Warmup finished CPU 7 instructions: 50000002 cycles: 12508302 cumulative IPC: 3.997 (Simulation time: 00 hr 49 min 24 sec)
Heartbeat CPU 4 instructions: 20000005 cycles: 13855508 heartbeat IPC: 0.9195 cumulative IPC: 1.443 (Simulation time: 00 hr 54 min 30 sec)
Heartbeat CPU 0 instructions: 20000000 cycles: 13855546 heartbeat IPC: 0.9195 cumulative IPC: 1.443 (Simulation time: 00 hr 54 min 30 sec)
Heartbeat CPU 3 instructions: 60000002 cycles: 15008105 heartbeat IPC: 4 cumulative IPC: 3.998 (Simulation time: 00 hr 58 min 53 sec)
Heartbeat CPU 2 instructions: 60000003 cycles: 15008181 heartbeat IPC: 4 cumulative IPC: 3.998 (Simulation time: 00 hr 58 min 53 sec)
Heartbeat CPU 6 instructions: 60000001 cycles: 15008181 heartbeat IPC: 4 cumulative IPC: 3.998 (Simulation time: 00 hr 58 min 53 sec)
Heartbeat CPU 7 instructions: 60000002 cycles: 15008302 heartbeat IPC: 4 cumulative IPC: 3.998 (Simulation time: 00 hr 58 min 53 sec)
Heartbeat CPU 1 instructions: 40000006 cycles: 15150089 heartbeat IPC: 2.707 cumulative IPC: 2.64 (Simulation time: 00 hr 59 min 26 sec)
Heartbeat CPU 5 instructions: 40000006 cycles: 15197491 heartbeat IPC: 2.696 cumulative IPC: 2.632 (Simulation time: 00 hr 59 min 37 sec)
Heartbeat CPU 3 instructions: 70000002 cycles: 17508105 heartbeat IPC: 4 cumulative IPC: 3.998 (Simulation time: 01 hr 08 min 42 sec)
Heartbeat CPU 2 instructions: 70000003 cycles: 17508181 heartbeat IPC: 4 cumulative IPC: 3.998 (Simulation time: 01 hr 08 min 42 sec)
Heartbeat CPU 6 instructions: 70000001 cycles: 17508181 heartbeat IPC: 4 cumulative IPC: 3.998 (Simulation time: 01 hr 08 min 42 sec)
Heartbeat CPU 7 instructions: 70000002 cycles: 17508302 heartbeat IPC: 4 cumulative IPC: 3.998 (Simulation time: 01 hr 08 min 42 sec)
Warmup finished CPU 1 instructions: 50000003 cycles: 18865323 cumulative IPC: 2.65 (Simulation time: 01 hr 14 min 04 sec)
Heartbeat CPU 1 instructions: 50000007 cycles: 18865324 heartbeat IPC: 2.692 cumulative IPC: 2.65 (Simulation time: 01 hr 14 min 04 sec)
Warmup finished CPU 5 instructions: 50000003 cycles: 18927690 cumulative IPC: 2.642 (Simulation time: 01 hr 14 min 19 sec)
Heartbeat CPU 5 instructions: 50000007 cycles: 18927691 heartbeat IPC: 2.681 cumulative IPC: 2.642 (Simulation time: 01 hr 14 min 19 sec)
Heartbeat CPU 3 instructions: 80000002 cycles: 20008105 heartbeat IPC: 4 cumulative IPC: 3.998 (Simulation time: 01 hr 18 min 34 sec)
Heartbeat CPU 2 instructions: 80000003 cycles: 20008181 heartbeat IPC: 4 cumulative IPC: 3.998 (Simulation time: 01 hr 18 min 34 sec)
Heartbeat CPU 6 instructions: 80000001 cycles: 20008181 heartbeat IPC: 4 cumulative IPC: 3.998 (Simulation time: 01 hr 18 min 34 sec)
Heartbeat CPU 7 instructions: 80000002 cycles: 20008302 heartbeat IPC: 4 cumulative IPC: 3.998 (Simulation time: 01 hr 18 min 34 sec)
Heartbeat CPU 1 instructions: 60000010 cycles: 22484421 heartbeat IPC: 2.763 cumulative IPC: 2.669 (Simulation time: 01 hr 27 min 54 sec)
Heartbeat CPU 3 instructions: 90000002 cycles: 22508105 heartbeat IPC: 4 cumulative IPC: 3.999 (Simulation time: 01 hr 27 min 59 sec)
Heartbeat CPU 2 instructions: 90000003 cycles: 22508181 heartbeat IPC: 4 cumulative IPC: 3.999 (Simulation time: 01 hr 27 min 59 sec)
Heartbeat CPU 6 instructions: 90000001 cycles: 22508181 heartbeat IPC: 4 cumulative IPC: 3.999 (Simulation time: 01 hr 27 min 59 sec)
Heartbeat CPU 7 instructions: 90000002 cycles: 22508302 heartbeat IPC: 4 cumulative IPC: 3.999 (Simulation time: 01 hr 27 min 59 sec)
Heartbeat CPU 5 instructions: 60000010 cycles: 22562247 heartbeat IPC: 2.751 cumulative IPC: 2.659 (Simulation time: 01 hr 28 min 11 sec)
Heartbeat CPU 3 instructions: 100000002 cycles: 25008105 heartbeat IPC: 4 cumulative IPC: 3.999 (Simulation time: 01 hr 37 min 07 sec)
Heartbeat CPU 2 instructions: 100000003 cycles: 25008181 heartbeat IPC: 4 cumulative IPC: 3.999 (Simulation time: 01 hr 37 min 07 sec)
Heartbeat CPU 6 instructions: 100000001 cycles: 25008181 heartbeat IPC: 4 cumulative IPC: 3.999 (Simulation time: 01 hr 37 min 07 sec)
Heartbeat CPU 7 instructions: 100000002 cycles: 25008302 heartbeat IPC: 4 cumulative IPC: 3.999 (Simulation time: 01 hr 37 min 08 sec)
Heartbeat CPU 1 instructions: 70000012 cycles: 26176230 heartbeat IPC: 2.709 cumulative IPC: 2.674 (Simulation time: 01 hr 41 min 25 sec)
Heartbeat CPU 5 instructions: 70000012 cycles: 26268611 heartbeat IPC: 2.698 cumulative IPC: 2.665 (Simulation time: 01 hr 41 min 45 sec)
Heartbeat CPU 3 instructions: 110000002 cycles: 27508105 heartbeat IPC: 4 cumulative IPC: 3.999 (Simulation time: 01 hr 46 min 22 sec)
Heartbeat CPU 2 instructions: 110000003 cycles: 27508181 heartbeat IPC: 4 cumulative IPC: 3.999 (Simulation time: 01 hr 46 min 22 sec)
Heartbeat CPU 6 instructions: 110000001 cycles: 27508181 heartbeat IPC: 4 cumulative IPC: 3.999 (Simulation time: 01 hr 46 min 22 sec)
Heartbeat CPU 7 instructions: 110000002 cycles: 27508302 heartbeat IPC: 4 cumulative IPC: 3.999 (Simulation time: 01 hr 46 min 22 sec)
Heartbeat CPU 0 instructions: 30000000 cycles: 28996231 heartbeat IPC: 0.6605 cumulative IPC: 1.035 (Simulation time: 01 hr 51 min 51 sec)
Heartbeat CPU 4 instructions: 30000005 cycles: 28996285 heartbeat IPC: 0.6605 cumulative IPC: 1.035 (Simulation time: 01 hr 51 min 51 sec)
Heartbeat CPU 1 instructions: 80000012 cycles: 29861897 heartbeat IPC: 2.713 cumulative IPC: 2.679 (Simulation time: 01 hr 55 min 03 sec)
Heartbeat CPU 5 instructions: 80000012 cycles: 29969332 heartbeat IPC: 2.702 cumulative IPC: 2.669 (Simulation time: 01 hr 55 min 27 sec)
Heartbeat CPU 3 instructions: 120000002 cycles: 30008105 heartbeat IPC: 4 cumulative IPC: 3.999 (Simulation time: 01 hr 55 min 36 sec)
Heartbeat CPU 2 instructions: 120000003 cycles: 30008181 heartbeat IPC: 4 cumulative IPC: 3.999 (Simulation time: 01 hr 55 min 36 sec)
Heartbeat CPU 6 instructions: 120000001 cycles: 30008181 heartbeat IPC: 4 cumulative IPC: 3.999 (Simulation time: 01 hr 55 min 36 sec)
Heartbeat CPU 7 instructions: 120000002 cycles: 30008302 heartbeat IPC: 4 cumulative IPC: 3.999 (Simulation time: 01 hr 55 min 36 sec)
Heartbeat CPU 3 instructions: 130000002 cycles: 32508105 heartbeat IPC: 4 cumulative IPC: 3.999 (Simulation time: 02 hr 04 min 54 sec)
Heartbeat CPU 2 instructions: 130000003 cycles: 32508181 heartbeat IPC: 4 cumulative IPC: 3.999 (Simulation time: 02 hr 04 min 54 sec)
Heartbeat CPU 6 instructions: 130000001 cycles: 32508181 heartbeat IPC: 4 cumulative IPC: 3.999 (Simulation time: 02 hr 04 min 54 sec)
Heartbeat CPU 7 instructions: 130000002 cycles: 32508302 heartbeat IPC: 4 cumulative IPC: 3.999 (Simulation time: 02 hr 04 min 54 sec)
Heartbeat CPU 1 instructions: 90000015 cycles: 33521790 heartbeat IPC: 2.732 cumulative IPC: 2.685 (Simulation time: 02 hr 08 min 33 sec)
Heartbeat CPU 5 instructions: 90000015 cycles: 33643606 heartbeat IPC: 2.722 cumulative IPC: 2.675 (Simulation time: 02 hr 09 min 00 sec)
Heartbeat CPU 3 instructions: 140000002 cycles: 35008105 heartbeat IPC: 4 cumulative IPC: 3.999 (Simulation time: 02 hr 14 min 00 sec)
Heartbeat CPU 2 instructions: 140000003 cycles: 35008181 heartbeat IPC: 4 cumulative IPC: 3.999 (Simulation time: 02 hr 14 min 00 sec)
Heartbeat CPU 6 instructions: 140000001 cycles: 35008181 heartbeat IPC: 4 cumulative IPC: 3.999 (Simulation time: 02 hr 14 min 00 sec)
Heartbeat CPU 7 instructions: 140000002 cycles: 35008302 heartbeat IPC: 4 cumulative IPC: 3.999 (Simulation time: 02 hr 14 min 01 sec)
Heartbeat CPU 1 instructions: 100000016 cycles: 37193597 heartbeat IPC: 2.723 cumulative IPC: 2.689 (Simulation time: 02 hr 22 min 09 sec)
Heartbeat CPU 5 instructions: 100000016 cycles: 37330063 heartbeat IPC: 2.713 cumulative IPC: 2.679 (Simulation time: 02 hr 22 min 40 sec)
Heartbeat CPU 3 instructions: 150000002 cycles: 37508105 heartbeat IPC: 4 cumulative IPC: 3.999 (Simulation time: 02 hr 23 min 20 sec)
Heartbeat CPU 2 instructions: 150000003 cycles: 37508181 heartbeat IPC: 4 cumulative IPC: 3.999 (Simulation time: 02 hr 23 min 20 sec)
Heartbeat CPU 6 instructions: 150000001 cycles: 37508181 heartbeat IPC: 4 cumulative IPC: 3.999 (Simulation time: 02 hr 23 min 20 sec)
Heartbeat CPU 7 instructions: 150000002 cycles: 37508302 heartbeat IPC: 4 cumulative IPC: 3.999 (Simulation time: 02 hr 23 min 20 sec)
Heartbeat CPU 3 instructions: 160000002 cycles: 40008105 heartbeat IPC: 4 cumulative IPC: 3.999 (Simulation time: 02 hr 32 min 49 sec)
Heartbeat CPU 2 instructions: 160000003 cycles: 40008181 heartbeat IPC: 4 cumulative IPC: 3.999 (Simulation time: 02 hr 32 min 49 sec)
Heartbeat CPU 6 instructions: 160000001 cycles: 40008181 heartbeat IPC: 4 cumulative IPC: 3.999 (Simulation time: 02 hr 32 min 49 sec)
Heartbeat CPU 7 instructions: 160000002 cycles: 40008302 heartbeat IPC: 4 cumulative IPC: 3.999 (Simulation time: 02 hr 32 min 49 sec)
Heartbeat CPU 1 instructions: 110000016 cycles: 40862302 heartbeat IPC: 2.726 cumulative IPC: 2.692 (Simulation time: 02 hr 35 min 56 sec)
Heartbeat CPU 5 instructions: 110000016 cycles: 41013712 heartbeat IPC: 2.715 cumulative IPC: 2.682 (Simulation time: 02 hr 36 min 29 sec)
Heartbeat CPU 3 instructions: 170000002 cycles: 42508105 heartbeat IPC: 4 cumulative IPC: 3.999 (Simulation time: 02 hr 42 min 09 sec)
Heartbeat CPU 2 instructions: 170000003 cycles: 42508181 heartbeat IPC: 4 cumulative IPC: 3.999 (Simulation time: 02 hr 42 min 09 sec)
Heartbeat CPU 6 instructions: 170000001 cycles: 42508181 heartbeat IPC: 4 cumulative IPC: 3.999 (Simulation time: 02 hr 42 min 09 sec)
Heartbeat CPU 7 instructions: 170000002 cycles: 42508302 heartbeat IPC: 4 cumulative IPC: 3.999 (Simulation time: 02 hr 42 min 09 sec)
Heartbeat CPU 4 instructions: 40000005 cycles: 44449021 heartbeat IPC: 0.6471 cumulative IPC: 0.8999 (Simulation time: 02 hr 49 min 28 sec)
Heartbeat CPU 0 instructions: 40000000 cycles: 44449515 heartbeat IPC: 0.6471 cumulative IPC: 0.8999 (Simulation time: 02 hr 49 min 28 sec)
Heartbeat CPU 1 instructions: 120000018 cycles: 44588885 heartbeat IPC: 2.683 cumulative IPC: 2.691 (Simulation time: 02 hr 50 min 01 sec)
Heartbeat CPU 5 instructions: 120000018 cycles: 44754675 heartbeat IPC: 2.673 cumulative IPC: 2.681 (Simulation time: 02 hr 50 min 38 sec)
Heartbeat CPU 3 instructions: 180000002 cycles: 45008105 heartbeat IPC: 4 cumulative IPC: 3.999 (Simulation time: 02 hr 51 min 35 sec)
Heartbeat CPU 2 instructions: 180000003 cycles: 45008181 heartbeat IPC: 4 cumulative IPC: 3.999 (Simulation time: 02 hr 51 min 35 sec)
Heartbeat CPU 6 instructions: 180000001 cycles: 45008181 heartbeat IPC: 4 cumulative IPC: 3.999 (Simulation time: 02 hr 51 min 35 sec)
Heartbeat CPU 7 instructions: 180000002 cycles: 45008302 heartbeat IPC: 4 cumulative IPC: 3.999 (Simulation time: 02 hr 51 min 35 sec)
Heartbeat CPU 3 instructions: 190000002 cycles: 47508105 heartbeat IPC: 4 cumulative IPC: 3.999 (Simulation time: 03 hr 00 min 44 sec)
Heartbeat CPU 2 instructions: 190000003 cycles: 47508181 heartbeat IPC: 4 cumulative IPC: 3.999 (Simulation time: 03 hr 00 min 44 sec)
Heartbeat CPU 6 instructions: 190000001 cycles: 47508181 heartbeat IPC: 4 cumulative IPC: 3.999 (Simulation time: 03 hr 00 min 44 sec)
Heartbeat CPU 7 instructions: 190000002 cycles: 47508302 heartbeat IPC: 4 cumulative IPC: 3.999 (Simulation time: 03 hr 00 min 44 sec)
Heartbeat CPU 1 instructions: 130000020 cycles: 48278627 heartbeat IPC: 2.71 cumulative IPC: 2.693 (Simulation time: 03 hr 03 min 39 sec)
Heartbeat CPU 5 instructions: 130000020 cycles: 48458558 heartbeat IPC: 2.7 cumulative IPC: 2.683 (Simulation time: 03 hr 04 min 20 sec)
Heartbeat CPU 3 instructions: 200000002 cycles: 50008105 heartbeat IPC: 4 cumulative IPC: 3.999 (Simulation time: 03 hr 10 min 05 sec)
Heartbeat CPU 2 instructions: 200000003 cycles: 50008181 heartbeat IPC: 4 cumulative IPC: 3.999 (Simulation time: 03 hr 10 min 05 sec)
Heartbeat CPU 6 instructions: 200000001 cycles: 50008181 heartbeat IPC: 4 cumulative IPC: 3.999 (Simulation time: 03 hr 10 min 05 sec)
Heartbeat CPU 7 instructions: 200000002 cycles: 50008302 heartbeat IPC: 4 cumulative IPC: 3.999 (Simulation time: 03 hr 10 min 05 sec)
Heartbeat CPU 1 instructions: 140000023 cycles: 51846432 heartbeat IPC: 2.803 cumulative IPC: 2.7 (Simulation time: 03 hr 16 min 51 sec)
Heartbeat CPU 5 instructions: 140000020 cycles: 52040984 heartbeat IPC: 2.791 cumulative IPC: 2.69 (Simulation time: 03 hr 17 min 36 sec)
Heartbeat CPU 3 instructions: 210000002 cycles: 52508105 heartbeat IPC: 4 cumulative IPC: 3.999 (Simulation time: 03 hr 19 min 22 sec)
Heartbeat CPU 2 instructions: 210000003 cycles: 52508181 heartbeat IPC: 4 cumulative IPC: 3.999 (Simulation time: 03 hr 19 min 22 sec)
Heartbeat CPU 6 instructions: 210000001 cycles: 52508181 heartbeat IPC: 4 cumulative IPC: 3.999 (Simulation time: 03 hr 19 min 22 sec)
Heartbeat CPU 7 instructions: 210000002 cycles: 52508302 heartbeat IPC: 4 cumulative IPC: 3.999 (Simulation time: 03 hr 19 min 22 sec)
Heartbeat CPU 3 instructions: 220000002 cycles: 55008105 heartbeat IPC: 4 cumulative IPC: 3.999 (Simulation time: 03 hr 28 min 59 sec)
Heartbeat CPU 2 instructions: 220000003 cycles: 55008181 heartbeat IPC: 4 cumulative IPC: 3.999 (Simulation time: 03 hr 28 min 59 sec)
Heartbeat CPU 6 instructions: 220000001 cycles: 55008181 heartbeat IPC: 4 cumulative IPC: 3.999 (Simulation time: 03 hr 28 min 59 sec)
Heartbeat CPU 7 instructions: 220000002 cycles: 55008302 heartbeat IPC: 4 cumulative IPC: 3.999 (Simulation time: 03 hr 28 min 59 sec)
Heartbeat CPU 1 instructions: 150000023 cycles: 55804429 heartbeat IPC: 2.527 cumulative IPC: 2.688 (Simulation time: 03 hr 32 min 10 sec)
Heartbeat CPU 5 instructions: 150000023 cycles: 55991654 heartbeat IPC: 2.531 cumulative IPC: 2.679 (Simulation time: 03 hr 32 min 55 sec)
Heartbeat CPU 3 instructions: 230000002 cycles: 57508105 heartbeat IPC: 4 cumulative IPC: 3.999 (Simulation time: 03 hr 37 min 48 sec)
Heartbeat CPU 2 instructions: 230000003 cycles: 57508181 heartbeat IPC: 4 cumulative IPC: 3.999 (Simulation time: 03 hr 37 min 48 sec)
Heartbeat CPU 6 instructions: 230000001 cycles: 57508181 heartbeat IPC: 4 cumulative IPC: 3.999 (Simulation time: 03 hr 37 min 48 sec)
Heartbeat CPU 7 instructions: 230000002 cycles: 57508302 heartbeat IPC: 4 cumulative IPC: 3.999 (Simulation time: 03 hr 37 min 48 sec)
Heartbeat CPU 1 instructions: 160000023 cycles: 59637308 heartbeat IPC: 2.609 cumulative IPC: 2.683 (Simulation time: 03 hr 45 min 52 sec)
Heartbeat CPU 5 instructions: 160000023 cycles: 59839468 heartbeat IPC: 2.599 cumulative IPC: 2.674 (Simulation time: 03 hr 46 min 39 sec)
Heartbeat CPU 3 instructions: 240000002 cycles: 60008105 heartbeat IPC: 4 cumulative IPC: 3.999 (Simulation time: 03 hr 47 min 18 sec)
Heartbeat CPU 2 instructions: 240000003 cycles: 60008181 heartbeat IPC: 4 cumulative IPC: 3.999 (Simulation time: 03 hr 47 min 18 sec)
Heartbeat CPU 6 instructions: 240000001 cycles: 60008181 heartbeat IPC: 4 cumulative IPC: 3.999 (Simulation time: 03 hr 47 min 18 sec)
Heartbeat CPU 7 instructions: 240000002 cycles: 60008302 heartbeat IPC: 4 cumulative IPC: 3.999 (Simulation time: 03 hr 47 min 18 sec)
Warmup finished CPU 4 instructions: 50000000 cycles: 60118639 cumulative IPC: 0.8317 (Simulation time: 03 hr 47 min 44 sec)
Heartbeat CPU 4 instructions: 50000005 cycles: 60118650 heartbeat IPC: 0.6382 cumulative IPC: 0.8317 (Simulation time: 03 hr 47 min 44 sec)
Heartbeat CPU 0 instructions: 50000000 cycles: 60118755 heartbeat IPC: 0.6382 cumulative IPC: 0.8317 (Simulation time: 03 hr 47 min 44 sec)
Warmup finished CPU 0 instructions: 50000000 cycles: 60118755 cumulative IPC: 0.8317 (Simulation time: 03 hr 47 min 44 sec)
Warmup complete CPU 7 instructions: 240441814 cycles: 60118755 cumulative IPC: 3.999 (Simulation time: 03 hr 47 min 44 sec)
Warmup complete CPU 6 instructions: 240442297 cycles: 60118755 cumulative IPC: 3.999 (Simulation time: 03 hr 47 min 44 sec)
Warmup complete CPU 5 instructions: 160758412 cycles: 60118755 cumulative IPC: 2.674 (Simulation time: 03 hr 47 min 44 sec)
Warmup complete CPU 4 instructions: 50000079 cycles: 60118755 cumulative IPC: 0.8317 (Simulation time: 03 hr 47 min 44 sec)
Warmup complete CPU 3 instructions: 240442602 cycles: 60118755 cumulative IPC: 3.999 (Simulation time: 03 hr 47 min 44 sec)
Warmup complete CPU 2 instructions: 240442299 cycles: 60118755 cumulative IPC: 3.999 (Simulation time: 03 hr 47 min 44 sec)
Warmup complete CPU 1 instructions: 161317815 cycles: 60118755 cumulative IPC: 2.683 (Simulation time: 03 hr 47 min 44 sec)
Warmup complete CPU 0 instructions: 50000000 cycles: 60118755 cumulative IPC: 0.8317 (Simulation time: 03 hr 47 min 44 sec)
Heartbeat CPU 3 instructions: 250000002 cycles: 62508105 heartbeat IPC: 4 cumulative IPC: 4 (Simulation time: 03 hr 56 min 50 sec)
Heartbeat CPU 2 instructions: 250000003 cycles: 62508181 heartbeat IPC: 4 cumulative IPC: 4 (Simulation time: 03 hr 56 min 50 sec)
Heartbeat CPU 6 instructions: 250000001 cycles: 62508181 heartbeat IPC: 4 cumulative IPC: 4 (Simulation time: 03 hr 56 min 50 sec)
Heartbeat CPU 7 instructions: 250000002 cycles: 62508302 heartbeat IPC: 4 cumulative IPC: 4 (Simulation time: 03 hr 56 min 50 sec)
Heartbeat CPU 1 instructions: 170000026 cycles: 64519690 heartbeat IPC: 2.048 cumulative IPC: 1.973 (Simulation time: 04 hr 04 min 31 sec)
Heartbeat CPU 5 instructions: 170000026 cycles: 64519726 heartbeat IPC: 2.137 cumulative IPC: 2.1 (Simulation time: 04 hr 04 min 31 sec)
Heartbeat CPU 3 instructions: 260000002 cycles: 65008105 heartbeat IPC: 4 cumulative IPC: 4 (Simulation time: 04 hr 06 min 17 sec)
Heartbeat CPU 2 instructions: 260000003 cycles: 65008181 heartbeat IPC: 4 cumulative IPC: 4 (Simulation time: 04 hr 06 min 17 sec)
Heartbeat CPU 6 instructions: 260000001 cycles: 65008181 heartbeat IPC: 4 cumulative IPC: 4 (Simulation time: 04 hr 06 min 17 sec)
Heartbeat CPU 7 instructions: 260000002 cycles: 65008302 heartbeat IPC: 4 cumulative IPC: 4 (Simulation time: 04 hr 06 min 17 sec)
Heartbeat CPU 3 instructions: 270000002 cycles: 67508105 heartbeat IPC: 4 cumulative IPC: 4 (Simulation time: 04 hr 15 min 46 sec)
Heartbeat CPU 2 instructions: 270000003 cycles: 67508181 heartbeat IPC: 4 cumulative IPC: 4 (Simulation time: 04 hr 15 min 46 sec)
Heartbeat CPU 6 instructions: 270000001 cycles: 67508181 heartbeat IPC: 4 cumulative IPC: 4 (Simulation time: 04 hr 15 min 46 sec)
Heartbeat CPU 7 instructions: 270000002 cycles: 67508302 heartbeat IPC: 4 cumulative IPC: 4 (Simulation time: 04 hr 15 min 46 sec)
Heartbeat CPU 1 instructions: 180000028 cycles: 69455813 heartbeat IPC: 2.026 cumulative IPC: 2.001 (Simulation time: 04 hr 23 min 04 sec)
Heartbeat CPU 5 instructions: 180000028 cycles: 69455817 heartbeat IPC: 2.026 cumulative IPC: 2.061 (Simulation time: 04 hr 23 min 04 sec)
Heartbeat CPU 3 instructions: 280000002 cycles: 70008105 heartbeat IPC: 4 cumulative IPC: 4 (Simulation time: 04 hr 25 min 03 sec)
Heartbeat CPU 2 instructions: 280000003 cycles: 70008181 heartbeat IPC: 4 cumulative IPC: 4 (Simulation time: 04 hr 25 min 03 sec)
Heartbeat CPU 6 instructions: 280000001 cycles: 70008181 heartbeat IPC: 4 cumulative IPC: 4 (Simulation time: 04 hr 25 min 03 sec)
Heartbeat CPU 7 instructions: 280000002 cycles: 70008302 heartbeat IPC: 4 cumulative IPC: 4 (Simulation time: 04 hr 25 min 03 sec)
Heartbeat CPU 3 instructions: 290000002 cycles: 72508105 heartbeat IPC: 4 cumulative IPC: 4 (Simulation time: 04 hr 34 min 08 sec)
Heartbeat CPU 2 instructions: 290000003 cycles: 72508181 heartbeat IPC: 4 cumulative IPC: 4 (Simulation time: 04 hr 34 min 08 sec)
Heartbeat CPU 6 instructions: 290000001 cycles: 72508181 heartbeat IPC: 4 cumulative IPC: 4 (Simulation time: 04 hr 34 min 08 sec)
Heartbeat CPU 7 instructions: 290000002 cycles: 72508302 heartbeat IPC: 4 cumulative IPC: 4 (Simulation time: 04 hr 34 min 08 sec)
Heartbeat CPU 1 instructions: 190000028 cycles: 74202458 heartbeat IPC: 2.107 cumulative IPC: 2.037 (Simulation time: 04 hr 40 min 01 sec)
Heartbeat CPU 5 instructions: 190000028 cycles: 74202535 heartbeat IPC: 2.107 cumulative IPC: 2.076 (Simulation time: 04 hr 40 min 01 sec)
Heartbeat CPU 3 instructions: 300000002 cycles: 75008105 heartbeat IPC: 4 cumulative IPC: 4 (Simulation time: 04 hr 43 min 10 sec)
Heartbeat CPU 2 instructions: 300000003 cycles: 75008181 heartbeat IPC: 4 cumulative IPC: 4 (Simulation time: 04 hr 43 min 10 sec)
Heartbeat CPU 6 instructions: 300000001 cycles: 75008181 heartbeat IPC: 4 cumulative IPC: 4 (Simulation time: 04 hr 43 min 10 sec)
Heartbeat CPU 7 instructions: 300000002 cycles: 75008302 heartbeat IPC: 4 cumulative IPC: 4 (Simulation time: 04 hr 43 min 10 sec)
Heartbeat CPU 3 instructions: 310000002 cycles: 77508105 heartbeat IPC: 4 cumulative IPC: 4 (Simulation time: 04 hr 53 min 24 sec)
Heartbeat CPU 2 instructions: 310000003 cycles: 77508181 heartbeat IPC: 4 cumulative IPC: 4 (Simulation time: 04 hr 53 min 24 sec)
Heartbeat CPU 6 instructions: 310000001 cycles: 77508181 heartbeat IPC: 4 cumulative IPC: 4 (Simulation time: 04 hr 53 min 24 sec)
Heartbeat CPU 7 instructions: 310000002 cycles: 77508302 heartbeat IPC: 4 cumulative IPC: 4 (Simulation time: 04 hr 53 min 24 sec)
Heartbeat CPU 1 instructions: 200000028 cycles: 78841295 heartbeat IPC: 2.156 cumulative IPC: 2.066 (Simulation time: 04 hr 58 min 46 sec)
Heartbeat CPU 5 instructions: 200000028 cycles: 78841620 heartbeat IPC: 2.156 cumulative IPC: 2.096 (Simulation time: 04 hr 58 min 46 sec)
Heartbeat CPU 0 instructions: 60000004 cycles: 79231712 heartbeat IPC: 0.5232 cumulative IPC: 0.5232 (Simulation time: 05 hr 00 min 18 sec)
Heartbeat CPU 4 instructions: 60000005 cycles: 79231974 heartbeat IPC: 0.5232 cumulative IPC: 0.5232 (Simulation time: 05 hr 00 min 19 sec)
Heartbeat CPU 3 instructions: 320000002 cycles: 80008105 heartbeat IPC: 4 cumulative IPC: 4 (Simulation time: 05 hr 03 min 17 sec)
Heartbeat CPU 2 instructions: 320000003 cycles: 80008181 heartbeat IPC: 4 cumulative IPC: 4 (Simulation time: 05 hr 03 min 17 sec)
Heartbeat CPU 6 instructions: 320000001 cycles: 80008181 heartbeat IPC: 4 cumulative IPC: 4 (Simulation time: 05 hr 03 min 17 sec)
Heartbeat CPU 7 instructions: 320000002 cycles: 80008302 heartbeat IPC: 4 cumulative IPC: 4 (Simulation time: 05 hr 03 min 17 sec)
Heartbeat CPU 3 instructions: 330000002 cycles: 82508105 heartbeat IPC: 4 cumulative IPC: 4 (Simulation time: 05 hr 12 min 33 sec)
Heartbeat CPU 2 instructions: 330000003 cycles: 82508181 heartbeat IPC: 4 cumulative IPC: 4 (Simulation time: 05 hr 12 min 33 sec)
Heartbeat CPU 6 instructions: 330000001 cycles: 82508181 heartbeat IPC: 4 cumulative IPC: 4 (Simulation time: 05 hr 12 min 33 sec)
Heartbeat CPU 7 instructions: 330000002 cycles: 82508302 heartbeat IPC: 4 cumulative IPC: 4 (Simulation time: 05 hr 12 min 33 sec)
Heartbeat CPU 1 instructions: 210000031 cycles: 83584664 heartbeat IPC: 2.108 cumulative IPC: 2.075 (Simulation time: 05 hr 16 min 28 sec)
Heartbeat CPU 5 instructions: 210000031 cycles: 83584670 heartbeat IPC: 2.108 cumulative IPC: 2.098 (Simulation time: 05 hr 16 min 28 sec)
Heartbeat CPU 3 instructions: 340000002 cycles: 85008105 heartbeat IPC: 4 cumulative IPC: 4 (Simulation time: 05 hr 21 min 43 sec)
Heartbeat CPU 2 instructions: 340000003 cycles: 85008181 heartbeat IPC: 4 cumulative IPC: 4 (Simulation time: 05 hr 21 min 43 sec)
Heartbeat CPU 6 instructions: 340000001 cycles: 85008181 heartbeat IPC: 4 cumulative IPC: 4 (Simulation time: 05 hr 21 min 43 sec)
Heartbeat CPU 7 instructions: 340000002 cycles: 85008302 heartbeat IPC: 4 cumulative IPC: 4 (Simulation time: 05 hr 21 min 43 sec)
Simulation finished CPU 7 instructions: 100000000 cycles: 25000000 cumulative IPC: 4 (Simulation time: 05 hr 22 min 08 sec)
Simulation finished CPU 6 instructions: 100000000 cycles: 25000000 cumulative IPC: 4 (Simulation time: 05 hr 22 min 08 sec)
Simulation finished CPU 3 instructions: 100000000 cycles: 25000000 cumulative IPC: 4 (Simulation time: 05 hr 22 min 08 sec)
Simulation finished CPU 2 instructions: 100000000 cycles: 25000000 cumulative IPC: 4 (Simulation time: 05 hr 22 min 08 sec)
Heartbeat CPU 3 instructions: 350000002 cycles: 87508105 heartbeat IPC: 4 cumulative IPC: 4 (Simulation time: 05 hr 31 min 00 sec)
Heartbeat CPU 2 instructions: 350000003 cycles: 87508181 heartbeat IPC: 4 cumulative IPC: 4 (Simulation time: 05 hr 31 min 00 sec)
Heartbeat CPU 6 instructions: 350000001 cycles: 87508181 heartbeat IPC: 4 cumulative IPC: 4 (Simulation time: 05 hr 31 min 00 sec)
Heartbeat CPU 7 instructions: 350000002 cycles: 87508302 heartbeat IPC: 4 cumulative IPC: 4 (Simulation time: 05 hr 31 min 00 sec)
Heartbeat CPU 1 instructions: 220000031 cycles: 88555925 heartbeat IPC: 2.012 cumulative IPC: 2.064 (Simulation time: 05 hr 34 min 58 sec)
Heartbeat CPU 5 instructions: 220000031 cycles: 88555989 heartbeat IPC: 2.012 cumulative IPC: 2.083 (Simulation time: 05 hr 34 min 58 sec)
Heartbeat CPU 3 instructions: 360000002 cycles: 90008105 heartbeat IPC: 4 cumulative IPC: 4 (Simulation time: 05 hr 40 min 32 sec)
Heartbeat CPU 2 instructions: 360000003 cycles: 90008181 heartbeat IPC: 4 cumulative IPC: 4 (Simulation time: 05 hr 40 min 32 sec)
Heartbeat CPU 6 instructions: 360000001 cycles: 90008181 heartbeat IPC: 4 cumulative IPC: 4 (Simulation time: 05 hr 40 min 32 sec)
Heartbeat CPU 7 instructions: 360000002 cycles: 90008302 heartbeat IPC: 4 cumulative IPC: 4 (Simulation time: 05 hr 40 min 32 sec)
Heartbeat CPU 3 instructions: 370000002 cycles: 92508105 heartbeat IPC: 4 cumulative IPC: 4 (Simulation time: 05 hr 49 min 53 sec)
Heartbeat CPU 2 instructions: 370000003 cycles: 92508181 heartbeat IPC: 4 cumulative IPC: 4 (Simulation time: 05 hr 49 min 53 sec)
Heartbeat CPU 6 instructions: 370000001 cycles: 92508181 heartbeat IPC: 4 cumulative IPC: 4 (Simulation time: 05 hr 49 min 53 sec)
Heartbeat CPU 7 instructions: 370000002 cycles: 92508302 heartbeat IPC: 4 cumulative IPC: 4 (Simulation time: 05 hr 49 min 53 sec)
Heartbeat CPU 1 instructions: 230000032 cycles: 93419396 heartbeat IPC: 2.056 cumulative IPC: 2.062 (Simulation time: 05 hr 53 min 20 sec)
Heartbeat CPU 5 instructions: 230000034 cycles: 93419419 heartbeat IPC: 2.056 cumulative IPC: 2.079 (Simulation time: 05 hr 53 min 20 sec)
Heartbeat CPU 3 instructions: 380000002 cycles: 95008105 heartbeat IPC: 4 cumulative IPC: 4 (Simulation time: 05 hr 59 min 19 sec)
Heartbeat CPU 2 instructions: 380000003 cycles: 95008181 heartbeat IPC: 4 cumulative IPC: 4 (Simulation time: 05 hr 59 min 19 sec)
Heartbeat CPU 6 instructions: 380000001 cycles: 95008181 heartbeat IPC: 4 cumulative IPC: 4 (Simulation time: 05 hr 59 min 19 sec)
Heartbeat CPU 7 instructions: 380000002 cycles: 95008302 heartbeat IPC: 4 cumulative IPC: 4 (Simulation time: 05 hr 59 min 19 sec)
Heartbeat CPU 3 instructions: 390000002 cycles: 97508105 heartbeat IPC: 4 cumulative IPC: 4 (Simulation time: 06 hr 08 min 38 sec)
Heartbeat CPU 2 instructions: 390000003 cycles: 97508181 heartbeat IPC: 4 cumulative IPC: 4 (Simulation time: 06 hr 08 min 38 sec)
Heartbeat CPU 6 instructions: 390000001 cycles: 97508181 heartbeat IPC: 4 cumulative IPC: 4 (Simulation time: 06 hr 08 min 38 sec)
Heartbeat CPU 7 instructions: 390000002 cycles: 97508302 heartbeat IPC: 4 cumulative IPC: 4 (Simulation time: 06 hr 08 min 38 sec)
Heartbeat CPU 0 instructions: 70000007 cycles: 97885741 heartbeat IPC: 0.5361 cumulative IPC: 0.5296 (Simulation time: 06 hr 09 min 59 sec)
Heartbeat CPU 4 instructions: 70000007 cycles: 97885850 heartbeat IPC: 0.5361 cumulative IPC: 0.5296 (Simulation time: 06 hr 09 min 59 sec)
Heartbeat CPU 5 instructions: 240000035 cycles: 98299989 heartbeat IPC: 2.049 cumulative IPC: 2.075 (Simulation time: 06 hr 11 min 29 sec)
Heartbeat CPU 1 instructions: 240000033 cycles: 98299989 heartbeat IPC: 2.049 cumulative IPC: 2.061 (Simulation time: 06 hr 11 min 29 sec)
Heartbeat CPU 3 instructions: 400000002 cycles: 100008105 heartbeat IPC: 4 cumulative IPC: 4 (Simulation time: 06 hr 17 min 40 sec)
Heartbeat CPU 2 instructions: 400000003 cycles: 100008181 heartbeat IPC: 4 cumulative IPC: 4 (Simulation time: 06 hr 17 min 40 sec)
Heartbeat CPU 6 instructions: 400000001 cycles: 100008181 heartbeat IPC: 4 cumulative IPC: 4 (Simulation time: 06 hr 17 min 40 sec)
Heartbeat CPU 7 instructions: 400000002 cycles: 100008302 heartbeat IPC: 4 cumulative IPC: 4 (Simulation time: 06 hr 17 min 40 sec)
Heartbeat CPU 3 instructions: 410000004 cycles: 102508175 heartbeat IPC: 4 cumulative IPC: 4 (Simulation time: 06 hr 27 min 06 sec)
Heartbeat CPU 2 instructions: 410000003 cycles: 102508181 heartbeat IPC: 4 cumulative IPC: 4 (Simulation time: 06 hr 27 min 06 sec)
Heartbeat CPU 6 instructions: 410000001 cycles: 102508181 heartbeat IPC: 4 cumulative IPC: 4 (Simulation time: 06 hr 27 min 06 sec)
Heartbeat CPU 7 instructions: 410000002 cycles: 102508302 heartbeat IPC: 4 cumulative IPC: 4 (Simulation time: 06 hr 27 min 06 sec)
Heartbeat CPU 1 instructions: 250000035 cycles: 103254387 heartbeat IPC: 2.018 cumulative IPC: 2.056 (Simulation time: 06 hr 30 min 00 sec)
Heartbeat CPU 5 instructions: 250000035 cycles: 103254642 heartbeat IPC: 2.018 cumulative IPC: 2.069 (Simulation time: 06 hr 30 min 00 sec)
Heartbeat CPU 3 instructions: 420000004 cycles: 105008175 heartbeat IPC: 4 cumulative IPC: 4 (Simulation time: 06 hr 36 min 51 sec)
Heartbeat CPU 6 instructions: 420000004 cycles: 105008243 heartbeat IPC: 4 cumulative IPC: 4 (Simulation time: 06 hr 36 min 51 sec)
Heartbeat CPU 2 instructions: 420000004 cycles: 105008249 heartbeat IPC: 4 cumulative IPC: 4 (Simulation time: 06 hr 36 min 51 sec)
Heartbeat CPU 7 instructions: 420000002 cycles: 105008302 heartbeat IPC: 4 cumulative IPC: 4 (Simulation time: 06 hr 36 min 51 sec)
Heartbeat CPU 3 instructions: 430000004 cycles: 107508175 heartbeat IPC: 4 cumulative IPC: 4 (Simulation time: 06 hr 46 min 16 sec)
Heartbeat CPU 6 instructions: 430000004 cycles: 107508243 heartbeat IPC: 4 cumulative IPC: 4 (Simulation time: 06 hr 46 min 16 sec)
Heartbeat CPU 2 instructions: 430000004 cycles: 107508249 heartbeat IPC: 4 cumulative IPC: 4 (Simulation time: 06 hr 46 min 16 sec)
Heartbeat CPU 7 instructions: 430000002 cycles: 107508302 heartbeat IPC: 4 cumulative IPC: 4 (Simulation time: 06 hr 46 min 16 sec)
Heartbeat CPU 1 instructions: 260000038 cycles: 108226388 heartbeat IPC: 2.011 cumulative IPC: 2.051 (Simulation time: 06 hr 48 min 58 sec)
Heartbeat CPU 5 instructions: 260000038 cycles: 108226407 heartbeat IPC: 2.011 cumulative IPC: 2.063 (Simulation time: 06 hr 48 min 58 sec)
Simulation finished CPU 5 instructions: 100000000 cycles: 48530110 cumulative IPC: 2.061 (Simulation time: 06 hr 50 min 29 sec)
Simulation finished CPU 1 instructions: 100000001 cycles: 48810248 cumulative IPC: 2.049 (Simulation time: 06 hr 51 min 28 sec)
Heartbeat CPU 3 instructions: 440000004 cycles: 110008175 heartbeat IPC: 4 cumulative IPC: 4 (Simulation time: 06 hr 55 min 18 sec)
Heartbeat CPU 6 instructions: 440000004 cycles: 110008243 heartbeat IPC: 4 cumulative IPC: 4 (Simulation time: 06 hr 55 min 18 sec)
Heartbeat CPU 2 instructions: 440000004 cycles: 110008249 heartbeat IPC: 4 cumulative IPC: 4 (Simulation time: 06 hr 55 min 18 sec)
Heartbeat CPU 7 instructions: 440000002 cycles: 110008302 heartbeat IPC: 4 cumulative IPC: 4 (Simulation time: 06 hr 55 min 18 sec)
Heartbeat CPU 3 instructions: 450000004 cycles: 112508175 heartbeat IPC: 4 cumulative IPC: 4 (Simulation time: 07 hr 04 min 25 sec)
Heartbeat CPU 6 instructions: 450000004 cycles: 112508243 heartbeat IPC: 4 cumulative IPC: 4 (Simulation time: 07 hr 04 min 25 sec)
Heartbeat CPU 2 instructions: 450000004 cycles: 112508249 heartbeat IPC: 4 cumulative IPC: 4 (Simulation time: 07 hr 04 min 25 sec)
Heartbeat CPU 7 instructions: 450000002 cycles: 112508302 heartbeat IPC: 4 cumulative IPC: 4 (Simulation time: 07 hr 04 min 25 sec)
Heartbeat CPU 1 instructions: 270000040 cycles: 113280755 heartbeat IPC: 1.978 cumulative IPC: 2.044 (Simulation time: 07 hr 07 min 15 sec)
Heartbeat CPU 5 instructions: 270000040 cycles: 113280757 heartbeat IPC: 1.978 cumulative IPC: 2.055 (Simulation time: 07 hr 07 min 15 sec)
Heartbeat CPU 3 instructions: 460000004 cycles: 115008175 heartbeat IPC: 4 cumulative IPC: 4 (Simulation time: 07 hr 13 min 31 sec)
Heartbeat CPU 6 instructions: 460000004 cycles: 115008243 heartbeat IPC: 4 cumulative IPC: 4 (Simulation time: 07 hr 13 min 31 sec)
Heartbeat CPU 2 instructions: 460000004 cycles: 115008249 heartbeat IPC: 4 cumulative IPC: 4 (Simulation time: 07 hr 13 min 31 sec)
Heartbeat CPU 7 instructions: 460000002 cycles: 115008302 heartbeat IPC: 4 cumulative IPC: 4 (Simulation time: 07 hr 13 min 31 sec)
Heartbeat CPU 0 instructions: 80000009 cycles: 116074127 heartbeat IPC: 0.5498 cumulative IPC: 0.5361 (Simulation time: 07 hr 17 min 22 sec)
Heartbeat CPU 4 instructions: 80000009 cycles: 116074226 heartbeat IPC: 0.5498 cumulative IPC: 0.5361 (Simulation time: 07 hr 17 min 22 sec)
Heartbeat CPU 3 instructions: 470000004 cycles: 117508175 heartbeat IPC: 4 cumulative IPC: 4 (Simulation time: 07 hr 22 min 33 sec)
Heartbeat CPU 6 instructions: 470000004 cycles: 117508243 heartbeat IPC: 4 cumulative IPC: 4 (Simulation time: 07 hr 22 min 33 sec)
Heartbeat CPU 2 instructions: 470000004 cycles: 117508249 heartbeat IPC: 4 cumulative IPC: 4 (Simulation time: 07 hr 22 min 33 sec)
Heartbeat CPU 7 instructions: 470000002 cycles: 117508302 heartbeat IPC: 4 cumulative IPC: 4 (Simulation time: 07 hr 22 min 33 sec)
Heartbeat CPU 1 instructions: 280000042 cycles: 119706351 heartbeat IPC: 1.556 cumulative IPC: 1.992 (Simulation time: 07 hr 30 min 25 sec)
Heartbeat CPU 5 instructions: 280000042 cycles: 119706351 heartbeat IPC: 1.556 cumulative IPC: 2.001 (Simulation time: 07 hr 30 min 25 sec)
Heartbeat CPU 3 instructions: 480000004 cycles: 120008175 heartbeat IPC: 4 cumulative IPC: 4 (Simulation time: 07 hr 31 min 29 sec)
Heartbeat CPU 6 instructions: 480000004 cycles: 120008243 heartbeat IPC: 4 cumulative IPC: 4 (Simulation time: 07 hr 31 min 29 sec)
Heartbeat CPU 2 instructions: 480000004 cycles: 120008249 heartbeat IPC: 4 cumulative IPC: 4 (Simulation time: 07 hr 31 min 29 sec)
Heartbeat CPU 7 instructions: 480000002 cycles: 120008302 heartbeat IPC: 4 cumulative IPC: 4 (Simulation time: 07 hr 31 min 29 sec)
Heartbeat CPU 3 instructions: 490000004 cycles: 122508175 heartbeat IPC: 4 cumulative IPC: 4 (Simulation time: 07 hr 40 min 18 sec)
Heartbeat CPU 6 instructions: 490000004 cycles: 122508243 heartbeat IPC: 4 cumulative IPC: 4 (Simulation time: 07 hr 40 min 18 sec)
Heartbeat CPU 2 instructions: 490000004 cycles: 122508249 heartbeat IPC: 4 cumulative IPC: 4 (Simulation time: 07 hr 40 min 18 sec)
Heartbeat CPU 7 instructions: 490000002 cycles: 122508302 heartbeat IPC: 4 cumulative IPC: 4 (Simulation time: 07 hr 40 min 18 sec)
Heartbeat CPU 3 instructions: 500000004 cycles: 125008175 heartbeat IPC: 4 cumulative IPC: 4 (Simulation time: 07 hr 49 min 25 sec)
Heartbeat CPU 6 instructions: 500000004 cycles: 125008243 heartbeat IPC: 4 cumulative IPC: 4 (Simulation time: 07 hr 49 min 25 sec)
Heartbeat CPU 2 instructions: 500000004 cycles: 125008249 heartbeat IPC: 4 cumulative IPC: 4 (Simulation time: 07 hr 49 min 25 sec)
Heartbeat CPU 7 instructions: 500000002 cycles: 125008302 heartbeat IPC: 4 cumulative IPC: 4 (Simulation time: 07 hr 49 min 25 sec)
Heartbeat CPU 1 instructions: 290000042 cycles: 126314468 heartbeat IPC: 1.513 cumulative IPC: 1.944 (Simulation time: 07 hr 54 min 12 sec)
Heartbeat CPU 5 instructions: 290000042 cycles: 126314624 heartbeat IPC: 1.513 cumulative IPC: 1.952 (Simulation time: 07 hr 54 min 12 sec)
Heartbeat CPU 3 instructions: 510000004 cycles: 127508175 heartbeat IPC: 4 cumulative IPC: 4 (Simulation time: 07 hr 58 min 38 sec)
Heartbeat CPU 6 instructions: 510000004 cycles: 127508243 heartbeat IPC: 4 cumulative IPC: 4 (Simulation time: 07 hr 58 min 38 sec)
Heartbeat CPU 2 instructions: 510000004 cycles: 127508249 heartbeat IPC: 4 cumulative IPC: 4 (Simulation time: 07 hr 58 min 38 sec)
Heartbeat CPU 7 instructions: 510000002 cycles: 127508302 heartbeat IPC: 4 cumulative IPC: 4 (Simulation time: 07 hr 58 min 38 sec)
Heartbeat CPU 3 instructions: 520000004 cycles: 130008175 heartbeat IPC: 4 cumulative IPC: 4 (Simulation time: 08 hr 08 min 01 sec)
Heartbeat CPU 6 instructions: 520000004 cycles: 130008243 heartbeat IPC: 4 cumulative IPC: 4 (Simulation time: 08 hr 08 min 01 sec)
Heartbeat CPU 2 instructions: 520000004 cycles: 130008249 heartbeat IPC: 4 cumulative IPC: 4 (Simulation time: 08 hr 08 min 01 sec)
Heartbeat CPU 7 instructions: 520000002 cycles: 130008302 heartbeat IPC: 4 cumulative IPC: 4 (Simulation time: 08 hr 08 min 01 sec)
Heartbeat CPU 1 instructions: 300000043 cycles: 131468898 heartbeat IPC: 1.94 cumulative IPC: 1.944 (Simulation time: 08 hr 13 min 13 sec)
Heartbeat CPU 5 instructions: 300000043 cycles: 131468911 heartbeat IPC: 1.94 cumulative IPC: 1.952 (Simulation time: 08 hr 13 min 13 sec)
Heartbeat CPU 3 instructions: 530000004 cycles: 132508175 heartbeat IPC: 4 cumulative IPC: 4 (Simulation time: 08 hr 17 min 06 sec)
Heartbeat CPU 6 instructions: 530000004 cycles: 132508243 heartbeat IPC: 4 cumulative IPC: 4 (Simulation time: 08 hr 17 min 06 sec)
Heartbeat CPU 2 instructions: 530000004 cycles: 132508249 heartbeat IPC: 4 cumulative IPC: 4 (Simulation time: 08 hr 17 min 06 sec)
Heartbeat CPU 7 instructions: 530000002 cycles: 132508302 heartbeat IPC: 4 cumulative IPC: 4 (Simulation time: 08 hr 17 min 06 sec)
*** Reached end of trace: (7, "/home/harshraj/COALESCE-Hashed-Perceptron-Cache-Replacement-Policy/simulator/traces/barnes_4t3.champsimtrace")
*** Reached end of trace: (3, "/home/harshraj/COALESCE-Hashed-Perceptron-Cache-Replacement-Policy/simulator/traces/barnes_4t3.champsimtrace")
Heartbeat CPU 6 instructions: 540000004 cycles: 135008243 heartbeat IPC: 4 cumulative IPC: 4 (Simulation time: 08 hr 26 min 38 sec)
Heartbeat CPU 2 instructions: 540000004 cycles: 135008249 heartbeat IPC: 4 cumulative IPC: 4 (Simulation time: 08 hr 26 min 38 sec)
Heartbeat CPU 3 instructions: 540000006 cycles: 135015820 heartbeat IPC: 3.988 cumulative IPC: 4 (Simulation time: 08 hr 26 min 40 sec)
Heartbeat CPU 7 instructions: 540000002 cycles: 135015829 heartbeat IPC: 3.988 cumulative IPC: 4 (Simulation time: 08 hr 26 min 40 sec)
Heartbeat CPU 0 instructions: 90000010 cycles: 135359590 heartbeat IPC: 0.5185 cumulative IPC: 0.5316 (Simulation time: 08 hr 27 min 59 sec)
Heartbeat CPU 4 instructions: 90000010 cycles: 135359591 heartbeat IPC: 0.5185 cumulative IPC: 0.5316 (Simulation time: 08 hr 27 min 59 sec)
Heartbeat CPU 1 instructions: 310000043 cycles: 136405239 heartbeat IPC: 2.026 cumulative IPC: 1.949 (Simulation time: 08 hr 31 min 47 sec)
Heartbeat CPU 5 instructions: 310000043 cycles: 136405336 heartbeat IPC: 2.026 cumulative IPC: 1.956 (Simulation time: 08 hr 31 min 47 sec)
Heartbeat CPU 6 instructions: 550000004 cycles: 137508243 heartbeat IPC: 4 cumulative IPC: 4 (Simulation time: 08 hr 35 min 53 sec)
Heartbeat CPU 2 instructions: 550000004 cycles: 137508249 heartbeat IPC: 4 cumulative IPC: 4 (Simulation time: 08 hr 35 min 53 sec)
Heartbeat CPU 3 instructions: 550000006 cycles: 137515820 heartbeat IPC: 4 cumulative IPC: 4 (Simulation time: 08 hr 35 min 55 sec)
Heartbeat CPU 7 instructions: 550000002 cycles: 137515829 heartbeat IPC: 4 cumulative IPC: 4 (Simulation time: 08 hr 35 min 55 sec)
*** Reached end of trace: (6, "/home/harshraj/COALESCE-Hashed-Perceptron-Cache-Replacement-Policy/simulator/traces/barnes_4t2.champsimtrace")
*** Reached end of trace: (2, "/home/harshraj/COALESCE-Hashed-Perceptron-Cache-Replacement-Policy/simulator/traces/barnes_4t2.champsimtrace")
Heartbeat CPU 6 instructions: 560000007 cycles: 140014610 heartbeat IPC: 3.99 cumulative IPC: 4 (Simulation time: 08 hr 45 min 11 sec)
Heartbeat CPU 2 instructions: 560000005 cycles: 140014738 heartbeat IPC: 3.99 cumulative IPC: 4 (Simulation time: 08 hr 45 min 11 sec)
Heartbeat CPU 3 instructions: 560000006 cycles: 140015820 heartbeat IPC: 4 cumulative IPC: 4 (Simulation time: 08 hr 45 min 11 sec)
Heartbeat CPU 7 instructions: 560000002 cycles: 140015829 heartbeat IPC: 4 cumulative IPC: 4 (Simulation time: 08 hr 45 min 11 sec)
Heartbeat CPU 1 instructions: 320000046 cycles: 141591111 heartbeat IPC: 1.928 cumulative IPC: 1.948 (Simulation time: 08 hr 51 min 02 sec)
Heartbeat CPU 5 instructions: 320000046 cycles: 141591357 heartbeat IPC: 1.928 cumulative IPC: 1.955 (Simulation time: 08 hr 51 min 02 sec)
Heartbeat CPU 6 instructions: 570000007 cycles: 142514610 heartbeat IPC: 4 cumulative IPC: 4 (Simulation time: 08 hr 54 min 27 sec)
Heartbeat CPU 2 instructions: 570000005 cycles: 142514738 heartbeat IPC: 4 cumulative IPC: 4 (Simulation time: 08 hr 54 min 27 sec)
Heartbeat CPU 3 instructions: 570000006 cycles: 142515820 heartbeat IPC: 4 cumulative IPC: 4 (Simulation time: 08 hr 54 min 27 sec)
Heartbeat CPU 7 instructions: 570000002 cycles: 142515829 heartbeat IPC: 4 cumulative IPC: 4 (Simulation time: 08 hr 54 min 27 sec)
Heartbeat CPU 6 instructions: 580000007 cycles: 145014610 heartbeat IPC: 4 cumulative IPC: 4 (Simulation time: 09 hr 03 min 56 sec)
Heartbeat CPU 2 instructions: 580000005 cycles: 145014738 heartbeat IPC: 4 cumulative IPC: 4 (Simulation time: 09 hr 03 min 56 sec)
Heartbeat CPU 3 instructions: 580000006 cycles: 145015820 heartbeat IPC: 4 cumulative IPC: 4 (Simulation time: 09 hr 03 min 57 sec)
Heartbeat CPU 7 instructions: 580000002 cycles: 145015829 heartbeat IPC: 4 cumulative IPC: 4 (Simulation time: 09 hr 03 min 57 sec)
Heartbeat CPU 1 instructions: 330000048 cycles: 146687293 heartbeat IPC: 1.962 cumulative IPC: 1.949 (Simulation time: 09 hr 10 min 29 sec)
Heartbeat CPU 5 instructions: 330000048 cycles: 146687623 heartbeat IPC: 1.962 cumulative IPC: 1.955 (Simulation time: 09 hr 10 min 29 sec)
Heartbeat CPU 6 instructions: 590000007 cycles: 147514610 heartbeat IPC: 4 cumulative IPC: 4 (Simulation time: 09 hr 13 min 40 sec)
Heartbeat CPU 2 instructions: 590000005 cycles: 147514738 heartbeat IPC: 4 cumulative IPC: 4 (Simulation time: 09 hr 13 min 40 sec)
Heartbeat CPU 3 instructions: 590000006 cycles: 147515820 heartbeat IPC: 4 cumulative IPC: 4 (Simulation time: 09 hr 13 min 40 sec)
Heartbeat CPU 7 instructions: 590000002 cycles: 147515829 heartbeat IPC: 4 cumulative IPC: 4 (Simulation time: 09 hr 13 min 40 sec)
Heartbeat CPU 6 instructions: 600000007 cycles: 150014610 heartbeat IPC: 4 cumulative IPC: 4 (Simulation time: 09 hr 22 min 52 sec)
Heartbeat CPU 2 instructions: 600000005 cycles: 150014738 heartbeat IPC: 4 cumulative IPC: 4 (Simulation time: 09 hr 22 min 52 sec)
Heartbeat CPU 3 instructions: 600000006 cycles: 150015820 heartbeat IPC: 4 cumulative IPC: 4 (Simulation time: 09 hr 22 min 52 sec)
Heartbeat CPU 7 instructions: 600000002 cycles: 150015829 heartbeat IPC: 4 cumulative IPC: 4 (Simulation time: 09 hr 22 min 52 sec)
Heartbeat CPU 1 instructions: 340000051 cycles: 151540133 heartbeat IPC: 2.061 cumulative IPC: 1.954 (Simulation time: 09 hr 28 min 27 sec)
Heartbeat CPU 5 instructions: 340000051 cycles: 151540431 heartbeat IPC: 2.061 cumulative IPC: 1.961 (Simulation time: 09 hr 28 min 27 sec)
Heartbeat CPU 6 instructions: 610000007 cycles: 152514610 heartbeat IPC: 4 cumulative IPC: 4 (Simulation time: 09 hr 32 min 04 sec)
Heartbeat CPU 2 instructions: 610000005 cycles: 152514738 heartbeat IPC: 4 cumulative IPC: 4 (Simulation time: 09 hr 32 min 04 sec)
Heartbeat CPU 3 instructions: 610000006 cycles: 152515820 heartbeat IPC: 4 cumulative IPC: 4 (Simulation time: 09 hr 32 min 05 sec)
Heartbeat CPU 7 instructions: 610000002 cycles: 152515829 heartbeat IPC: 4 cumulative IPC: 4 (Simulation time: 09 hr 32 min 05 sec)
Heartbeat CPU 0 instructions: 100000010 cycles: 153403590 heartbeat IPC: 0.5542 cumulative IPC: 0.536 (Simulation time: 09 hr 35 min 23 sec)
Heartbeat CPU 4 instructions: 100000010 cycles: 153403591 heartbeat IPC: 0.5542 cumulative IPC: 0.536 (Simulation time: 09 hr 35 min 23 sec)
Heartbeat CPU 6 instructions: 620000007 cycles: 155014610 heartbeat IPC: 4 cumulative IPC: 4 (Simulation time: 09 hr 41 min 24 sec)
Heartbeat CPU 2 instructions: 620000005 cycles: 155014738 heartbeat IPC: 4 cumulative IPC: 4 (Simulation time: 09 hr 41 min 24 sec)
Heartbeat CPU 3 instructions: 620000006 cycles: 155015820 heartbeat IPC: 4 cumulative IPC: 4 (Simulation time: 09 hr 41 min 25 sec)
Heartbeat CPU 7 instructions: 620000002 cycles: 155015829 heartbeat IPC: 4 cumulative IPC: 4 (Simulation time: 09 hr 41 min 25 sec)
Heartbeat CPU 1 instructions: 350000052 cycles: 155961539 heartbeat IPC: 2.262 cumulative IPC: 1.969 (Simulation time: 09 hr 45 min 11 sec)
Heartbeat CPU 5 instructions: 350000053 cycles: 155961578 heartbeat IPC: 2.262 cumulative IPC: 1.974 (Simulation time: 09 hr 45 min 11 sec)
Heartbeat CPU 6 instructions: 630000007 cycles: 157514610 heartbeat IPC: 4 cumulative IPC: 4 (Simulation time: 09 hr 51 min 20 sec)
Heartbeat CPU 2 instructions: 630000005 cycles: 157514738 heartbeat IPC: 4 cumulative IPC: 4 (Simulation time: 09 hr 51 min 20 sec)
Heartbeat CPU 3 instructions: 630000006 cycles: 157515820 heartbeat IPC: 4 cumulative IPC: 4 (Simulation time: 09 hr 51 min 20 sec)
Heartbeat CPU 7 instructions: 630000002 cycles: 157515829 heartbeat IPC: 4 cumulative IPC: 4 (Simulation time: 09 hr 51 min 20 sec)
Heartbeat CPU 6 instructions: 640000007 cycles: 160014610 heartbeat IPC: 4 cumulative IPC: 4 (Simulation time: 10 hr 01 min 15 sec)
Heartbeat CPU 2 instructions: 640000005 cycles: 160014738 heartbeat IPC: 4 cumulative IPC: 4 (Simulation time: 10 hr 01 min 15 sec)
Heartbeat CPU 3 instructions: 640000006 cycles: 160015820 heartbeat IPC: 4 cumulative IPC: 4 (Simulation time: 10 hr 01 min 15 sec)
Heartbeat CPU 7 instructions: 640000002 cycles: 160015829 heartbeat IPC: 4 cumulative IPC: 4 (Simulation time: 10 hr 01 min 15 sec)
Heartbeat CPU 1 instructions: 360000055 cycles: 160989170 heartbeat IPC: 1.989 cumulative IPC: 1.97 (Simulation time: 10 hr 04 min 55 sec)
Heartbeat CPU 5 instructions: 360000055 cycles: 160989285 heartbeat IPC: 1.989 cumulative IPC: 1.975 (Simulation time: 10 hr 04 min 55 sec)
Heartbeat CPU 6 instructions: 650000007 cycles: 162514610 heartbeat IPC: 4 cumulative IPC: 4 (Simulation time: 10 hr 10 min 40 sec)
Heartbeat CPU 2 instructions: 650000005 cycles: 162514738 heartbeat IPC: 4 cumulative IPC: 4 (Simulation time: 10 hr 10 min 40 sec)
Heartbeat CPU 3 instructions: 650000006 cycles: 162515820 heartbeat IPC: 4 cumulative IPC: 4 (Simulation time: 10 hr 10 min 41 sec)
Heartbeat CPU 7 instructions: 650000002 cycles: 162515829 heartbeat IPC: 4 cumulative IPC: 4 (Simulation time: 10 hr 10 min 41 sec)
Heartbeat CPU 6 instructions: 660000007 cycles: 165014610 heartbeat IPC: 4 cumulative IPC: 4 (Simulation time: 10 hr 20 min 03 sec)
Heartbeat CPU 2 instructions: 660000005 cycles: 165014738 heartbeat IPC: 4 cumulative IPC: 4 (Simulation time: 10 hr 20 min 03 sec)
Heartbeat CPU 3 instructions: 660000006 cycles: 165015820 heartbeat IPC: 4 cumulative IPC: 4 (Simulation time: 10 hr 20 min 03 sec)
Heartbeat CPU 7 instructions: 660000002 cycles: 165015829 heartbeat IPC: 4 cumulative IPC: 4 (Simulation time: 10 hr 20 min 03 sec)
Heartbeat CPU 1 instructions: 370000056 cycles: 165718981 heartbeat IPC: 2.114 cumulative IPC: 1.976 (Simulation time: 10 hr 22 min 39 sec)
Heartbeat CPU 5 instructions: 370000056 cycles: 165718998 heartbeat IPC: 2.114 cumulative IPC: 1.981 (Simulation time: 10 hr 22 min 39 sec)
Heartbeat CPU 6 instructions: 670000007 cycles: 167514610 heartbeat IPC: 4 cumulative IPC: 4 (Simulation time: 10 hr 29 min 20 sec)
Heartbeat CPU 2 instructions: 670000005 cycles: 167514738 heartbeat IPC: 4 cumulative IPC: 4 (Simulation time: 10 hr 29 min 20 sec)
Heartbeat CPU 3 instructions: 670000006 cycles: 167515820 heartbeat IPC: 4 cumulative IPC: 4 (Simulation time: 10 hr 29 min 20 sec)
Heartbeat CPU 7 instructions: 670000002 cycles: 167515829 heartbeat IPC: 4 cumulative IPC: 4 (Simulation time: 10 hr 29 min 20 sec)
Heartbeat CPU 6 instructions: 680000007 cycles: 170014610 heartbeat IPC: 4 cumulative IPC: 4 (Simulation time: 10 hr 38 min 18 sec)
Heartbeat CPU 2 instructions: 680000005 cycles: 170014738 heartbeat IPC: 4 cumulative IPC: 4 (Simulation time: 10 hr 38 min 18 sec)
Heartbeat CPU 3 instructions: 680000006 cycles: 170015820 heartbeat IPC: 4 cumulative IPC: 4 (Simulation time: 10 hr 38 min 18 sec)
Heartbeat CPU 7 instructions: 680000002 cycles: 170015829 heartbeat IPC: 4 cumulative IPC: 4 (Simulation time: 10 hr 38 min 18 sec)
Heartbeat CPU 0 instructions: 110000010 cycles: 170027553 heartbeat IPC: 0.6015 cumulative IPC: 0.5459 (Simulation time: 10 hr 38 min 20 sec)
Heartbeat CPU 4 instructions: 110000010 cycles: 170027559 heartbeat IPC: 0.6015 cumulative IPC: 0.5459 (Simulation time: 10 hr 38 min 20 sec)
Heartbeat CPU 1 instructions: 380000058 cycles: 170720843 heartbeat IPC: 1.999 cumulative IPC: 1.977 (Simulation time: 10 hr 40 min 56 sec)
Heartbeat CPU 5 instructions: 380000058 cycles: 170721651 heartbeat IPC: 1.999 cumulative IPC: 1.982 (Simulation time: 10 hr 40 min 56 sec)
Heartbeat CPU 6 instructions: 690000007 cycles: 172514610 heartbeat IPC: 4 cumulative IPC: 4 (Simulation time: 10 hr 47 min 39 sec)
Heartbeat CPU 2 instructions: 690000005 cycles: 172514738 heartbeat IPC: 4 cumulative IPC: 4 (Simulation time: 10 hr 47 min 39 sec)
Heartbeat CPU 3 instructions: 690000006 cycles: 172515820 heartbeat IPC: 4 cumulative IPC: 4 (Simulation time: 10 hr 47 min 39 sec)
Heartbeat CPU 7 instructions: 690000002 cycles: 172515829 heartbeat IPC: 4 cumulative IPC: 4 (Simulation time: 10 hr 47 min 39 sec)
Heartbeat CPU 6 instructions: 700000007 cycles: 175014610 heartbeat IPC: 4 cumulative IPC: 4 (Simulation time: 10 hr 56 min 51 sec)
Heartbeat CPU 2 instructions: 700000005 cycles: 175014738 heartbeat IPC: 4 cumulative IPC: 4 (Simulation time: 10 hr 56 min 51 sec)
Heartbeat CPU 3 instructions: 700000006 cycles: 175015820 heartbeat IPC: 4 cumulative IPC: 4 (Simulation time: 10 hr 56 min 51 sec)
Heartbeat CPU 7 instructions: 700000002 cycles: 175015829 heartbeat IPC: 4 cumulative IPC: 4 (Simulation time: 10 hr 56 min 51 sec)
Heartbeat CPU 1 instructions: 390000061 cycles: 176378849 heartbeat IPC: 1.767 cumulative IPC: 1.967 (Simulation time: 11 hr 01 min 46 sec)
Heartbeat CPU 5 instructions: 390000061 cycles: 176378904 heartbeat IPC: 1.768 cumulative IPC: 1.972 (Simulation time: 11 hr 01 min 46 sec)
Heartbeat CPU 6 instructions: 710000007 cycles: 177514610 heartbeat IPC: 4 cumulative IPC: 4 (Simulation time: 11 hr 06 min 04 sec)
Heartbeat CPU 2 instructions: 710000005 cycles: 177514738 heartbeat IPC: 4 cumulative IPC: 4 (Simulation time: 11 hr 06 min 04 sec)
Heartbeat CPU 3 instructions: 710000006 cycles: 177515820 heartbeat IPC: 4 cumulative IPC: 4 (Simulation time: 11 hr 06 min 04 sec)
Heartbeat CPU 7 instructions: 710000002 cycles: 177515829 heartbeat IPC: 4 cumulative IPC: 4 (Simulation time: 11 hr 06 min 04 sec)
Heartbeat CPU 6 instructions: 720000007 cycles: 180014610 heartbeat IPC: 4 cumulative IPC: 4 (Simulation time: 11 hr 15 min 36 sec)
Heartbeat CPU 2 instructions: 720000005 cycles: 180014738 heartbeat IPC: 4 cumulative IPC: 4 (Simulation time: 11 hr 15 min 36 sec)
Heartbeat CPU 3 instructions: 720000006 cycles: 180015820 heartbeat IPC: 4 cumulative IPC: 4 (Simulation time: 11 hr 15 min 36 sec)
Heartbeat CPU 7 instructions: 720000002 cycles: 180015829 heartbeat IPC: 4 cumulative IPC: 4 (Simulation time: 11 hr 15 min 36 sec)
Heartbeat CPU 1 instructions: 400000063 cycles: 182301415 heartbeat IPC: 1.688 cumulative IPC: 1.953 (Simulation time: 11 hr 24 min 56 sec)
Heartbeat CPU 5 instructions: 400000063 cycles: 182301418 heartbeat IPC: 1.688 cumulative IPC: 1.958 (Simulation time: 11 hr 24 min 56 sec)
Heartbeat CPU 6 instructions: 730000007 cycles: 182514610 heartbeat IPC: 4 cumulative IPC: 4 (Simulation time: 11 hr 25 min 48 sec)
Heartbeat CPU 2 instructions: 730000005 cycles: 182514738 heartbeat IPC: 4 cumulative IPC: 4 (Simulation time: 11 hr 25 min 48 sec)
Heartbeat CPU 3 instructions: 730000006 cycles: 182515820 heartbeat IPC: 4 cumulative IPC: 4 (Simulation time: 11 hr 25 min 49 sec)
Heartbeat CPU 7 instructions: 730000002 cycles: 182515829 heartbeat IPC: 4 cumulative IPC: 4 (Simulation time: 11 hr 25 min 49 sec)
Heartbeat CPU 6 instructions: 740000007 cycles: 185014610 heartbeat IPC: 4 cumulative IPC: 4 (Simulation time: 11 hr 35 min 43 sec)
Heartbeat CPU 2 instructions: 740000005 cycles: 185014738 heartbeat IPC: 4 cumulative IPC: 4 (Simulation time: 11 hr 35 min 43 sec)
Heartbeat CPU 3 instructions: 740000006 cycles: 185015820 heartbeat IPC: 4 cumulative IPC: 4 (Simulation time: 11 hr 35 min 43 sec)
Heartbeat CPU 7 instructions: 740000002 cycles: 185015829 heartbeat IPC: 4 cumulative IPC: 4 (Simulation time: 11 hr 35 min 43 sec)
Heartbeat CPU 4 instructions: 120000010 cycles: 186081746 heartbeat IPC: 0.6229 cumulative IPC: 0.5557 (Simulation time: 11 hr 40 min 09 sec)
Heartbeat CPU 0 instructions: 120000010 cycles: 186081749 heartbeat IPC: 0.6229 cumulative IPC: 0.5557 (Simulation time: 11 hr 40 min 09 sec)
Heartbeat CPU 6 instructions: 750000007 cycles: 187514610 heartbeat IPC: 4 cumulative IPC: 4 (Simulation time: 11 hr 46 min 12 sec)
Heartbeat CPU 2 instructions: 750000005 cycles: 187514738 heartbeat IPC: 4 cumulative IPC: 4 (Simulation time: 11 hr 46 min 12 sec)
Heartbeat CPU 3 instructions: 750000006 cycles: 187515820 heartbeat IPC: 4 cumulative IPC: 4 (Simulation time: 11 hr 46 min 12 sec)
Heartbeat CPU 7 instructions: 750000002 cycles: 187515829 heartbeat IPC: 4 cumulative IPC: 4 (Simulation time: 11 hr 46 min 12 sec)
Heartbeat CPU 1 instructions: 410000064 cycles: 187736316 heartbeat IPC: 1.84 cumulative IPC: 1.949 (Simulation time: 11 hr 47 min 08 sec)
Heartbeat CPU 5 instructions: 410000064 cycles: 187736543 heartbeat IPC: 1.84 cumulative IPC: 1.953 (Simulation time: 11 hr 47 min 08 sec)
Heartbeat CPU 6 instructions: 760000007 cycles: 190014610 heartbeat IPC: 4 cumulative IPC: 4 (Simulation time: 11 hr 56 min 25 sec)
Heartbeat CPU 2 instructions: 760000005 cycles: 190014738 heartbeat IPC: 4 cumulative IPC: 4 (Simulation time: 11 hr 56 min 25 sec)
Heartbeat CPU 3 instructions: 760000006 cycles: 190015820 heartbeat IPC: 4 cumulative IPC: 4 (Simulation time: 11 hr 56 min 26 sec)
Heartbeat CPU 7 instructions: 760000002 cycles: 190015829 heartbeat IPC: 4 cumulative IPC: 4 (Simulation time: 11 hr 56 min 26 sec)
Heartbeat CPU 6 instructions: 770000007 cycles: 192514610 heartbeat IPC: 4 cumulative IPC: 4 (Simulation time: 12 hr 06 min 43 sec)
Heartbeat CPU 2 instructions: 770000005 cycles: 192514738 heartbeat IPC: 4 cumulative IPC: 4 (Simulation time: 12 hr 06 min 43 sec)
Heartbeat CPU 3 instructions: 770000006 cycles: 192515820 heartbeat IPC: 4 cumulative IPC: 4 (Simulation time: 12 hr 06 min 43 sec)
Heartbeat CPU 7 instructions: 770000002 cycles: 192515829 heartbeat IPC: 4 cumulative IPC: 4 (Simulation time: 12 hr 06 min 43 sec)
Heartbeat CPU 6 instructions: 780000007 cycles: 195014610 heartbeat IPC: 4 cumulative IPC: 4 (Simulation time: 12 hr 16 min 39 sec)
Heartbeat CPU 2 instructions: 780000005 cycles: 195014738 heartbeat IPC: 4 cumulative IPC: 4 (Simulation time: 12 hr 16 min 39 sec)
Heartbeat CPU 3 instructions: 780000006 cycles: 195015820 heartbeat IPC: 4 cumulative IPC: 4 (Simulation time: 12 hr 16 min 39 sec)
Heartbeat CPU 7 instructions: 780000002 cycles: 195015829 heartbeat IPC: 4 cumulative IPC: 4 (Simulation time: 12 hr 16 min 39 sec)
Heartbeat CPU 5 instructions: 420000066 cycles: 195910409 heartbeat IPC: 1.223 cumulative IPC: 1.909 (Simulation time: 12 hr 20 min 11 sec)
Heartbeat CPU 1 instructions: 420000066 cycles: 195910409 heartbeat IPC: 1.223 cumulative IPC: 1.905 (Simulation time: 12 hr 20 min 11 sec)
Heartbeat CPU 6 instructions: 790000007 cycles: 197514610 heartbeat IPC: 4 cumulative IPC: 4 (Simulation time: 12 hr 26 min 21 sec)
Heartbeat CPU 2 instructions: 790000005 cycles: 197514738 heartbeat IPC: 4 cumulative IPC: 4 (Simulation time: 12 hr 26 min 21 sec)
Heartbeat CPU 3 instructions: 790000006 cycles: 197515820 heartbeat IPC: 4 cumulative IPC: 4 (Simulation time: 12 hr 26 min 22 sec)
Heartbeat CPU 7 instructions: 790000002 cycles: 197515829 heartbeat IPC: 4 cumulative IPC: 4 (Simulation time: 12 hr 26 min 22 sec)
Heartbeat CPU 0 instructions: 130000012 cycles: 198260645 heartbeat IPC: 0.8211 cumulative IPC: 0.5791 (Simulation time: 12 hr 29 min 12 sec)
Heartbeat CPU 4 instructions: 130000012 cycles: 198260663 heartbeat IPC: 0.8211 cumulative IPC: 0.5791 (Simulation time: 12 hr 29 min 12 sec)
Heartbeat CPU 6 instructions: 800000007 cycles: 200014610 heartbeat IPC: 4 cumulative IPC: 4 (Simulation time: 12 hr 36 min 08 sec)
Heartbeat CPU 2 instructions: 800000005 cycles: 200014738 heartbeat IPC: 4 cumulative IPC: 4 (Simulation time: 12 hr 36 min 08 sec)
Heartbeat CPU 3 instructions: 800000006 cycles: 200015820 heartbeat IPC: 4 cumulative IPC: 4 (Simulation time: 12 hr 36 min 08 sec)
Heartbeat CPU 7 instructions: 800000002 cycles: 200015829 heartbeat IPC: 4 cumulative IPC: 4 (Simulation time: 12 hr 36 min 08 sec)
Heartbeat CPU 1 instructions: 430000066 cycles: 201606525 heartbeat IPC: 1.756 cumulative IPC: 1.899 (Simulation time: 12 hr 42 min 47 sec)
Heartbeat CPU 5 instructions: 430000066 cycles: 201606569 heartbeat IPC: 1.756 cumulative IPC: 1.903 (Simulation time: 12 hr 42 min 47 sec)
Heartbeat CPU 6 instructions: 810000007 cycles: 202514610 heartbeat IPC: 4 cumulative IPC: 4 (Simulation time: 12 hr 46 min 31 sec)
Heartbeat CPU 2 instructions: 810000005 cycles: 202514738 heartbeat IPC: 4 cumulative IPC: 4 (Simulation time: 12 hr 46 min 31 sec)
Heartbeat CPU 3 instructions: 810000006 cycles: 202515820 heartbeat IPC: 4 cumulative IPC: 4 (Simulation time: 12 hr 46 min 31 sec)
Heartbeat CPU 7 instructions: 810000002 cycles: 202515829 heartbeat IPC: 4 cumulative IPC: 4 (Simulation time: 12 hr 46 min 31 sec)
Heartbeat CPU 0 instructions: 140000015 cycles: 204931749 heartbeat IPC: 1.499 cumulative IPC: 0.6215 (Simulation time: 12 hr 57 min 41 sec)
Heartbeat CPU 4 instructions: 140000015 cycles: 204931966 heartbeat IPC: 1.499 cumulative IPC: 0.6215 (Simulation time: 12 hr 57 min 41 sec)
Heartbeat CPU 6 instructions: 820000007 cycles: 205014610 heartbeat IPC: 4 cumulative IPC: 4 (Simulation time: 12 hr 58 min 04 sec)
Heartbeat CPU 2 instructions: 820000005 cycles: 205014738 heartbeat IPC: 4 cumulative IPC: 4 (Simulation time: 12 hr 58 min 04 sec)
Heartbeat CPU 3 instructions: 820000006 cycles: 205015820 heartbeat IPC: 4 cumulative IPC: 4 (Simulation time: 12 hr 58 min 05 sec)
Heartbeat CPU 7 instructions: 820000002 cycles: 205015829 heartbeat IPC: 4 cumulative IPC: 4 (Simulation time: 12 hr 58 min 05 sec)
Heartbeat CPU 1 instructions: 440000069 cycles: 206668550 heartbeat IPC: 1.975 cumulative IPC: 1.902 (Simulation time: 13 hr 05 min 23 sec)
Heartbeat CPU 5 instructions: 440000069 cycles: 206668615 heartbeat IPC: 1.975 cumulative IPC: 1.905 (Simulation time: 13 hr 05 min 23 sec)
Heartbeat CPU 6 instructions: 830000007 cycles: 207514610 heartbeat IPC: 4 cumulative IPC: 4 (Simulation time: 13 hr 08 min 40 sec)
Heartbeat CPU 2 instructions: 830000005 cycles: 207514738 heartbeat IPC: 4 cumulative IPC: 4 (Simulation time: 13 hr 08 min 40 sec)
Heartbeat CPU 3 instructions: 830000006 cycles: 207515820 heartbeat IPC: 4 cumulative IPC: 4 (Simulation time: 13 hr 08 min 41 sec)
Heartbeat CPU 7 instructions: 830000002 cycles: 207515829 heartbeat IPC: 4 cumulative IPC: 4 (Simulation time: 13 hr 08 min 41 sec)
Heartbeat CPU 6 instructions: 840000007 cycles: 210014610 heartbeat IPC: 4 cumulative IPC: 4 (Simulation time: 13 hr 18 min 24 sec)
Heartbeat CPU 2 instructions: 840000005 cycles: 210014738 heartbeat IPC: 4 cumulative IPC: 4 (Simulation time: 13 hr 18 min 24 sec)
Heartbeat CPU 3 instructions: 840000006 cycles: 210015820 heartbeat IPC: 4 cumulative IPC: 4 (Simulation time: 13 hr 18 min 24 sec)
Heartbeat CPU 7 instructions: 840000002 cycles: 210015829 heartbeat IPC: 4 cumulative IPC: 4 (Simulation time: 13 hr 18 min 24 sec)
Heartbeat CPU 1 instructions: 450000070 cycles: 211897284 heartbeat IPC: 1.913 cumulative IPC: 1.902 (Simulation time: 13 hr 25 min 57 sec)
Heartbeat CPU 5 instructions: 450000070 cycles: 211897375 heartbeat IPC: 1.912 cumulative IPC: 1.906 (Simulation time: 13 hr 25 min 57 sec)
Heartbeat CPU 6 instructions: 850000007 cycles: 212514610 heartbeat IPC: 4 cumulative IPC: 4 (Simulation time: 13 hr 28 min 12 sec)
Heartbeat CPU 2 instructions: 850000005 cycles: 212514738 heartbeat IPC: 4 cumulative IPC: 4 (Simulation time: 13 hr 28 min 12 sec)
Heartbeat CPU 3 instructions: 850000006 cycles: 212515820 heartbeat IPC: 4 cumulative IPC: 4 (Simulation time: 13 hr 28 min 12 sec)
Heartbeat CPU 7 instructions: 850000002 cycles: 212515829 heartbeat IPC: 4 cumulative IPC: 4 (Simulation time: 13 hr 28 min 12 sec)
Heartbeat CPU 6 instructions: 860000007 cycles: 215014610 heartbeat IPC: 4 cumulative IPC: 4 (Simulation time: 13 hr 37 min 52 sec)
Heartbeat CPU 2 instructions: 860000005 cycles: 215014738 heartbeat IPC: 4 cumulative IPC: 4 (Simulation time: 13 hr 37 min 52 sec)
Heartbeat CPU 3 instructions: 860000006 cycles: 215015820 heartbeat IPC: 4 cumulative IPC: 4 (Simulation time: 13 hr 37 min 52 sec)
Heartbeat CPU 7 instructions: 860000002 cycles: 215015829 heartbeat IPC: 4 cumulative IPC: 4 (Simulation time: 13 hr 37 min 52 sec)
Simulation finished CPU 0 instructions: 100000004 cycles: 156612622 cumulative IPC: 0.6385 (Simulation time: 13 hr 44 min 12 sec)
Heartbeat CPU 0 instructions: 150000016 cycles: 216731380 heartbeat IPC: 0.8475 cumulative IPC: 0.6385 (Simulation time: 13 hr 44 min 12 sec)
Heartbeat CPU 4 instructions: 150000019 cycles: 216731444 heartbeat IPC: 0.8475 cumulative IPC: 0.6385 (Simulation time: 13 hr 44 min 12 sec)
Simulation finished CPU 4 instructions: 100000001 cycles: 156612869 cumulative IPC: 0.6385 (Simulation time: 13 hr 44 min 12 sec)
Simulation complete CPU 7 instructions: 626421368 cycles: 156612869 cumulative IPC: 4 (Simulation time: 13 hr 44 min 12 sec)
Simulation complete CPU 6 instructions: 626425766 cycles: 156612869 cumulative IPC: 4 (Simulation time: 13 hr 44 min 12 sec)
Simulation complete CPU 5 instructions: 298711786 cycles: 156612869 cumulative IPC: 1.907 (Simulation time: 13 hr 44 min 12 sec)
Simulation complete CPU 4 instructions: 100000001 cycles: 156612869 cumulative IPC: 0.6385 (Simulation time: 13 hr 44 min 12 sec)
Simulation complete CPU 3 instructions: 626420620 cycles: 156612869 cumulative IPC: 4 (Simulation time: 13 hr 44 min 12 sec)
Simulation complete CPU 2 instructions: 626425250 cycles: 156612869 cumulative IPC: 4 (Simulation time: 13 hr 44 min 12 sec)
Simulation complete CPU 1 instructions: 298153735 cycles: 156612869 cumulative IPC: 1.904 (Simulation time: 13 hr 44 min 12 sec)
Simulation complete CPU 0 instructions: 100000101 cycles: 156612869 cumulative IPC: 0.6385 (Simulation time: 13 hr 44 min 12 sec)

ChampSim completed all CPUs

=== Simulation ===
CPU 0 runs /home/harshraj/COALESCE-Hashed-Perceptron-Cache-Replacement-Policy/simulator/traces/barnes_4t0.champsimtrace
CPU 1 runs /home/harshraj/COALESCE-Hashed-Perceptron-Cache-Replacement-Policy/simulator/traces/barnes_4t1.champsimtrace
CPU 2 runs /home/harshraj/COALESCE-Hashed-Perceptron-Cache-Replacement-Policy/simulator/traces/barnes_4t2.champsimtrace
CPU 3 runs /home/harshraj/COALESCE-Hashed-Perceptron-Cache-Replacement-Policy/simulator/traces/barnes_4t3.champsimtrace
CPU 4 runs /home/harshraj/COALESCE-Hashed-Perceptron-Cache-Replacement-Policy/simulator/traces/barnes_4t0.champsimtrace
CPU 5 runs /home/harshraj/COALESCE-Hashed-Perceptron-Cache-Replacement-Policy/simulator/traces/barnes_4t1.champsimtrace
CPU 6 runs /home/harshraj/COALESCE-Hashed-Perceptron-Cache-Replacement-Policy/simulator/traces/barnes_4t2.champsimtrace
CPU 7 runs /home/harshraj/COALESCE-Hashed-Perceptron-Cache-Replacement-Policy/simulator/traces/barnes_4t3.champsimtrace

Total Simulation Statistics (not including warmup)

CPU 7 cumulative IPC: 4 instructions: 626421368 cycles: 156612869
CPU 7 Branch Prediction Accuracy: -% MPKI: 0 Average ROB Occupancy at Mispredict: -
Branch type MPKI
BRANCH_DIRECT_JUMP: 0
BRANCH_INDIRECT: 0
BRANCH_CONDITIONAL: 0
BRANCH_DIRECT_CALL: 0
BRANCH_INDIRECT_CALL: 0
BRANCH_RETURN: 0


CPU 6 cumulative IPC: 4 instructions: 626425766 cycles: 156612869
CPU 6 Branch Prediction Accuracy: -% MPKI: 0 Average ROB Occupancy at Mispredict: -
Branch type MPKI
BRANCH_DIRECT_JUMP: 0
BRANCH_INDIRECT: 0
BRANCH_CONDITIONAL: 0
BRANCH_DIRECT_CALL: 0
BRANCH_INDIRECT_CALL: 0
BRANCH_RETURN: 0


CPU 5 cumulative IPC: 1.907 instructions: 298711786 cycles: 156612869
CPU 5 Branch Prediction Accuracy: -% MPKI: 0 Average ROB Occupancy at Mispredict: -
Branch type MPKI
BRANCH_DIRECT_JUMP: 0
BRANCH_INDIRECT: 0
BRANCH_CONDITIONAL: 0
BRANCH_DIRECT_CALL: 0
BRANCH_INDIRECT_CALL: 0
BRANCH_RETURN: 0


CPU 4 cumulative IPC: 0.6385 instructions: 100000001 cycles: 156612869
CPU 4 Branch Prediction Accuracy: -% MPKI: 0 Average ROB Occupancy at Mispredict: -
Branch type MPKI
BRANCH_DIRECT_JUMP: 0
BRANCH_INDIRECT: 0
BRANCH_CONDITIONAL: 0
BRANCH_DIRECT_CALL: 0
BRANCH_INDIRECT_CALL: 0
BRANCH_RETURN: 0


CPU 3 cumulative IPC: 4 instructions: 626420620 cycles: 156612869
CPU 3 Branch Prediction Accuracy: -% MPKI: 0 Average ROB Occupancy at Mispredict: -
Branch type MPKI
BRANCH_DIRECT_JUMP: 0
BRANCH_INDIRECT: 0
BRANCH_CONDITIONAL: 0
BRANCH_DIRECT_CALL: 0
BRANCH_INDIRECT_CALL: 0
BRANCH_RETURN: 0


CPU 2 cumulative IPC: 4 instructions: 626425250 cycles: 156612869
CPU 2 Branch Prediction Accuracy: -% MPKI: 0 Average ROB Occupancy at Mispredict: -
Branch type MPKI
BRANCH_DIRECT_JUMP: 0
BRANCH_INDIRECT: 0
BRANCH_CONDITIONAL: 0
BRANCH_DIRECT_CALL: 0
BRANCH_INDIRECT_CALL: 0
BRANCH_RETURN: 0


CPU 1 cumulative IPC: 1.904 instructions: 298153735 cycles: 156612869
CPU 1 Branch Prediction Accuracy: -% MPKI: 0 Average ROB Occupancy at Mispredict: -
Branch type MPKI
BRANCH_DIRECT_JUMP: 0
BRANCH_INDIRECT: 0
BRANCH_CONDITIONAL: 0
BRANCH_DIRECT_CALL: 0
BRANCH_INDIRECT_CALL: 0
BRANCH_RETURN: 0


CPU 0 cumulative IPC: 0.6385 instructions: 100000101 cycles: 156612869
CPU 0 Branch Prediction Accuracy: -% MPKI: 0 Average ROB Occupancy at Mispredict: -
Branch type MPKI
BRANCH_DIRECT_JUMP: 0
BRANCH_INDIRECT: 0
BRANCH_CONDITIONAL: 0
BRANCH_DIRECT_CALL: 0
BRANCH_INDIRECT_CALL: 0
BRANCH_RETURN: 0

cpu7->cpu7_STLB TOTAL        ACCESS:         18 HIT:          8 MISS:         10 MSHR_MERGE:          0
cpu7->cpu7_STLB LOAD         ACCESS:         18 HIT:          8 MISS:         10 MSHR_MERGE:          0
cpu7->cpu7_STLB RFO          ACCESS:          0 HIT:          0 MISS:          0 MSHR_MERGE:          0
cpu7->cpu7_STLB PREFETCH     ACCESS:          0 HIT:          0 MISS:          0 MSHR_MERGE:          0
cpu7->cpu7_STLB WRITE        ACCESS:          0 HIT:          0 MISS:          0 MSHR_MERGE:          0
cpu7->cpu7_STLB TRANSLATION  ACCESS:          0 HIT:          0 MISS:          0 MSHR_MERGE:          0
cpu7->cpu7_STLB PREFETCH REQUESTED:          0 ISSUED:          0 USEFUL:          0 USELESS:          0
cpu7->cpu7_STLB AVERAGE MISS LATENCY: 718.6 cycles
cpu7_STLB COHERENCE INVALIDATIONS:          0
cpu7_STLB COHERENCE WRITE-HIT OTHER-SHARER EVENTS:          0
cpu7->cpu7_L2C TOTAL        ACCESS:         58 HIT:          4 MISS:         54 MSHR_MERGE:          0
cpu7->cpu7_L2C LOAD         ACCESS:         38 HIT:          4 MISS:         34 MSHR_MERGE:          0
cpu7->cpu7_L2C RFO          ACCESS:          0 HIT:          0 MISS:          0 MSHR_MERGE:          0
cpu7->cpu7_L2C PREFETCH     ACCESS:          0 HIT:          0 MISS:          0 MSHR_MERGE:          0
cpu7->cpu7_L2C WRITE        ACCESS:          0 HIT:          0 MISS:          0 MSHR_MERGE:          0
cpu7->cpu7_L2C TRANSLATION  ACCESS:         20 HIT:          0 MISS:         20 MSHR_MERGE:          0
cpu7->cpu7_L2C PREFETCH REQUESTED:          0 ISSUED:          0 USEFUL:          0 USELESS:          0
cpu7->cpu7_L2C AVERAGE MISS LATENCY: 216 cycles
cpu7_L2C COHERENCE INVALIDATIONS:          0
cpu7_L2C COHERENCE WRITE-HIT OTHER-SHARER EVENTS:          0
cpu7->cpu7_L1I TOTAL        ACCESS:   89910409 HIT:   89910354 MISS:         55 MSHR_MERGE:         17
cpu7->cpu7_L1I LOAD         ACCESS:   89910409 HIT:   89910354 MISS:         55 MSHR_MERGE:         17
cpu7->cpu7_L1I RFO          ACCESS:          0 HIT:          0 MISS:          0 MSHR_MERGE:          0
cpu7->cpu7_L1I PREFETCH     ACCESS:          0 HIT:          0 MISS:          0 MSHR_MERGE:          0
cpu7->cpu7_L1I WRITE        ACCESS:          0 HIT:          0 MISS:          0 MSHR_MERGE:          0
cpu7->cpu7_L1I TRANSLATION  ACCESS:          0 HIT:          0 MISS:          0 MSHR_MERGE:          0
cpu7->cpu7_L1I PREFETCH REQUESTED:          0 ISSUED:          0 USEFUL:          0 USELESS:          0
cpu7->cpu7_L1I AVERAGE MISS LATENCY: 191 cycles
cpu7_L1I COHERENCE INVALIDATIONS:          0
cpu7_L1I COHERENCE WRITE-HIT OTHER-SHARER EVENTS:          0
cpu7->cpu7_L1D TOTAL        ACCESS:         20 HIT:          0 MISS:         20 MSHR_MERGE:          0
cpu7->cpu7_L1D LOAD         ACCESS:          0 HIT:          0 MISS:          0 MSHR_MERGE:          0
cpu7->cpu7_L1D RFO          ACCESS:          0 HIT:          0 MISS:          0 MSHR_MERGE:          0
cpu7->cpu7_L1D PREFETCH     ACCESS:          0 HIT:          0 MISS:          0 MSHR_MERGE:          0
cpu7->cpu7_L1D WRITE        ACCESS:          0 HIT:          0 MISS:          0 MSHR_MERGE:          0
cpu7->cpu7_L1D TRANSLATION  ACCESS:         20 HIT:          0 MISS:         20 MSHR_MERGE:          0
cpu7->cpu7_L1D PREFETCH REQUESTED:          0 ISSUED:          0 USEFUL:          0 USELESS:          0
cpu7->cpu7_L1D AVERAGE MISS LATENCY: 243.3 cycles
cpu7_L1D COHERENCE INVALIDATIONS:          0
cpu7_L1D COHERENCE WRITE-HIT OTHER-SHARER EVENTS:          0
cpu7->cpu7_ITLB TOTAL        ACCESS:   72482347 HIT:   72482314 MISS:         33 MSHR_MERGE:         15
cpu7->cpu7_ITLB LOAD         ACCESS:   72482347 HIT:   72482314 MISS:         33 MSHR_MERGE:         15
cpu7->cpu7_ITLB RFO          ACCESS:          0 HIT:          0 MISS:          0 MSHR_MERGE:          0
cpu7->cpu7_ITLB PREFETCH     ACCESS:          0 HIT:          0 MISS:          0 MSHR_MERGE:          0
cpu7->cpu7_ITLB WRITE        ACCESS:          0 HIT:          0 MISS:          0 MSHR_MERGE:          0
cpu7->cpu7_ITLB TRANSLATION  ACCESS:          0 HIT:          0 MISS:          0 MSHR_MERGE:          0
cpu7->cpu7_ITLB PREFETCH REQUESTED:          0 ISSUED:          0 USEFUL:          0 USELESS:          0
cpu7->cpu7_ITLB AVERAGE MISS LATENCY: 403.8 cycles
cpu7_ITLB COHERENCE INVALIDATIONS:          0
cpu7_ITLB COHERENCE WRITE-HIT OTHER-SHARER EVENTS:          0
cpu7_DTLB COHERENCE INVALIDATIONS:          0
cpu7_DTLB COHERENCE WRITE-HIT OTHER-SHARER EVENTS:          0
cpu6->cpu6_STLB TOTAL        ACCESS:         17 HIT:          7 MISS:         10 MSHR_MERGE:          0
cpu6->cpu6_STLB LOAD         ACCESS:         17 HIT:          7 MISS:         10 MSHR_MERGE:          0
cpu6->cpu6_STLB RFO          ACCESS:          0 HIT:          0 MISS:          0 MSHR_MERGE:          0
cpu6->cpu6_STLB PREFETCH     ACCESS:          0 HIT:          0 MISS:          0 MSHR_MERGE:          0
cpu6->cpu6_STLB WRITE        ACCESS:          0 HIT:          0 MISS:          0 MSHR_MERGE:          0
cpu6->cpu6_STLB TRANSLATION  ACCESS:          0 HIT:          0 MISS:          0 MSHR_MERGE:          0
cpu6->cpu6_STLB PREFETCH REQUESTED:          0 ISSUED:          0 USEFUL:          0 USELESS:          0
cpu6->cpu6_STLB AVERAGE MISS LATENCY: 633.9 cycles
cpu6_STLB COHERENCE INVALIDATIONS:          0
cpu6_STLB COHERENCE WRITE-HIT OTHER-SHARER EVENTS:          0
cpu6->cpu6_L2C TOTAL        ACCESS:         58 HIT:          4 MISS:         54 MSHR_MERGE:          0
cpu6->cpu6_L2C LOAD         ACCESS:         38 HIT:          4 MISS:         34 MSHR_MERGE:          0
cpu6->cpu6_L2C RFO          ACCESS:          0 HIT:          0 MISS:          0 MSHR_MERGE:          0
cpu6->cpu6_L2C PREFETCH     ACCESS:          0 HIT:          0 MISS:          0 MSHR_MERGE:          0
cpu6->cpu6_L2C WRITE        ACCESS:          0 HIT:          0 MISS:          0 MSHR_MERGE:          0
cpu6->cpu6_L2C TRANSLATION  ACCESS:         20 HIT:          0 MISS:         20 MSHR_MERGE:          0
cpu6->cpu6_L2C PREFETCH REQUESTED:          0 ISSUED:          0 USEFUL:          0 USELESS:          0
cpu6->cpu6_L2C AVERAGE MISS LATENCY: 87.15 cycles
cpu6_L2C COHERENCE INVALIDATIONS:          0
cpu6_L2C COHERENCE WRITE-HIT OTHER-SHARER EVENTS:          0
cpu6->cpu6_L1I TOTAL        ACCESS:   91290634 HIT:   91290581 MISS:         53 MSHR_MERGE:         15
cpu6->cpu6_L1I LOAD         ACCESS:   91290634 HIT:   91290581 MISS:         53 MSHR_MERGE:         15
cpu6->cpu6_L1I RFO          ACCESS:          0 HIT:          0 MISS:          0 MSHR_MERGE:          0
cpu6->cpu6_L1I PREFETCH     ACCESS:          0 HIT:          0 MISS:          0 MSHR_MERGE:          0
cpu6->cpu6_L1I WRITE        ACCESS:          0 HIT:          0 MISS:          0 MSHR_MERGE:          0
cpu6->cpu6_L1I TRANSLATION  ACCESS:          0 HIT:          0 MISS:          0 MSHR_MERGE:          0
cpu6->cpu6_L1I PREFETCH REQUESTED:          0 ISSUED:          0 USEFUL:          0 USELESS:          0
cpu6->cpu6_L1I AVERAGE MISS LATENCY: 25 cycles
cpu6_L1I COHERENCE INVALIDATIONS:          0
cpu6_L1I COHERENCE WRITE-HIT OTHER-SHARER EVENTS:          0
cpu6->cpu6_L1D TOTAL        ACCESS:         20 HIT:          0 MISS:         20 MSHR_MERGE:          0
cpu6->cpu6_L1D LOAD         ACCESS:          0 HIT:          0 MISS:          0 MSHR_MERGE:          0
cpu6->cpu6_L1D RFO          ACCESS:          0 HIT:          0 MISS:          0 MSHR_MERGE:          0
cpu6->cpu6_L1D PREFETCH     ACCESS:          0 HIT:          0 MISS:          0 MSHR_MERGE:          0
cpu6->cpu6_L1D WRITE        ACCESS:          0 HIT:          0 MISS:          0 MSHR_MERGE:          0
cpu6->cpu6_L1D TRANSLATION  ACCESS:         20 HIT:          0 MISS:         20 MSHR_MERGE:          0
cpu6->cpu6_L1D PREFETCH REQUESTED:          0 ISSUED:          0 USEFUL:          0 USELESS:          0
cpu6->cpu6_L1D AVERAGE MISS LATENCY: 210.9 cycles
cpu6_L1D COHERENCE INVALIDATIONS:          0
cpu6_L1D COHERENCE WRITE-HIT OTHER-SHARER EVENTS:          0
cpu6->cpu6_ITLB TOTAL        ACCESS:   72848597 HIT:   72848571 MISS:         26 MSHR_MERGE:          9
cpu6->cpu6_ITLB LOAD         ACCESS:   72848597 HIT:   72848571 MISS:         26 MSHR_MERGE:          9
cpu6->cpu6_ITLB RFO          ACCESS:          0 HIT:          0 MISS:          0 MSHR_MERGE:          0
cpu6->cpu6_ITLB PREFETCH     ACCESS:          0 HIT:          0 MISS:          0 MSHR_MERGE:          0
cpu6->cpu6_ITLB WRITE        ACCESS:          0 HIT:          0 MISS:          0 MSHR_MERGE:          0
cpu6->cpu6_ITLB TRANSLATION  ACCESS:          0 HIT:          0 MISS:          0 MSHR_MERGE:          0
cpu6->cpu6_ITLB PREFETCH REQUESTED:          0 ISSUED:          0 USEFUL:          0 USELESS:          0
cpu6->cpu6_ITLB AVERAGE MISS LATENCY: 377.5 cycles
cpu6_ITLB COHERENCE INVALIDATIONS:          0
cpu6_ITLB COHERENCE WRITE-HIT OTHER-SHARER EVENTS:          0
cpu6_DTLB COHERENCE INVALIDATIONS:          0
cpu6_DTLB COHERENCE WRITE-HIT OTHER-SHARER EVENTS:          0
cpu5->cpu5_STLB TOTAL        ACCESS:    1119268 HIT:    1119100 MISS:        168 MSHR_MERGE:          0
cpu5->cpu5_STLB LOAD         ACCESS:    1119268 HIT:    1119100 MISS:        168 MSHR_MERGE:          0
[...]
cpu2->cpu2_STLB PREFETCH REQUESTED:          0 ISSUED:          0 USEFUL:          0 USELESS:          0
cpu2->cpu2_STLB AVERAGE MISS LATENCY: 645.1 cycles
cpu2_STLB COHERENCE INVALIDATIONS:          0
cpu2_STLB COHERENCE WRITE-HIT OTHER-SHARER EVENTS:          0
cpu2->cpu2_L2C TOTAL        ACCESS:         58 HIT:          4 MISS:         54 MSHR_MERGE:          0
cpu2->cpu2_L2C LOAD         ACCESS:         38 HIT:          4 MISS:         34 MSHR_MERGE:          0
cpu2->cpu2_L2C RFO          ACCESS:          0 HIT:          0 MISS:          0 MSHR_MERGE:          0
cpu2->cpu2_L2C PREFETCH     ACCESS:          0 HIT:          0 MISS:          0 MSHR_MERGE:          0
cpu2->cpu2_L2C WRITE        ACCESS:          0 HIT:          0 MISS:          0 MSHR_MERGE:          0
cpu2->cpu2_L2C TRANSLATION  ACCESS:         20 HIT:          0 MISS:         20 MSHR_MERGE:          0
cpu2->cpu2_L2C PREFETCH REQUESTED:          0 ISSUED:          0 USEFUL:          0 USELESS:          0
cpu2->cpu2_L2C AVERAGE MISS LATENCY: 89.31 cycles
cpu2_L2C COHERENCE INVALIDATIONS:          0
cpu2_L2C COHERENCE WRITE-HIT OTHER-SHARER EVENTS:          0
cpu2->cpu2_L1I TOTAL        ACCESS:   90463528 HIT:   90463477 MISS:         51 MSHR_MERGE:         13
cpu2->cpu2_L1I LOAD         ACCESS:   90463528 HIT:   90463477 MISS:         51 MSHR_MERGE:         13
cpu2->cpu2_L1I RFO          ACCESS:          0 HIT:          0 MISS:          0 MSHR_MERGE:          0
cpu2->cpu2_L1I PREFETCH     ACCESS:          0 HIT:          0 MISS:          0 MSHR_MERGE:          0
cpu2->cpu2_L1I WRITE        ACCESS:          0 HIT:          0 MISS:          0 MSHR_MERGE:          0
cpu2->cpu2_L1I TRANSLATION  ACCESS:          0 HIT:          0 MISS:          0 MSHR_MERGE:          0
cpu2->cpu2_L1I PREFETCH REQUESTED:          0 ISSUED:          0 USEFUL:          0 USELESS:          0
cpu2->cpu2_L1I AVERAGE MISS LATENCY: 25.05 cycles
cpu2_L1I COHERENCE INVALIDATIONS:          0
cpu2_L1I COHERENCE WRITE-HIT OTHER-SHARER EVENTS:          0
cpu2->cpu2_L1D TOTAL        ACCESS:         20 HIT:          0 MISS:         20 MSHR_MERGE:          0
cpu2->cpu2_L1D LOAD         ACCESS:          0 HIT:          0 MISS:          0 MSHR_MERGE:          0
cpu2->cpu2_L1D RFO          ACCESS:          0 HIT:          0 MISS:          0 MSHR_MERGE:          0
cpu2->cpu2_L1D PREFETCH     ACCESS:          0 HIT:          0 MISS:          0 MSHR_MERGE:          0
cpu2->cpu2_L1D WRITE        ACCESS:          0 HIT:          0 MISS:          0 MSHR_MERGE:          0
cpu2->cpu2_L1D TRANSLATION  ACCESS:         20 HIT:          0 MISS:         20 MSHR_MERGE:          0
cpu2->cpu2_L1D PREFETCH REQUESTED:          0 ISSUED:          0 USEFUL:          0 USELESS:          0
cpu2->cpu2_L1D AVERAGE MISS LATENCY: 216.6 cycles
cpu2_L1D COHERENCE INVALIDATIONS:          0
cpu2_L1D COHERENCE WRITE-HIT OTHER-SHARER EVENTS:          0
cpu2->cpu2_ITLB TOTAL        ACCESS:   72283080 HIT:   72283053 MISS:         27 MSHR_MERGE:         10
cpu2->cpu2_ITLB LOAD         ACCESS:   72283080 HIT:   72283053 MISS:         27 MSHR_MERGE:         10
cpu2->cpu2_ITLB RFO          ACCESS:          0 HIT:          0 MISS:          0 MSHR_MERGE:          0
cpu2->cpu2_ITLB PREFETCH     ACCESS:          0 HIT:          0 MISS:          0 MSHR_MERGE:          0
cpu2->cpu2_ITLB WRITE        ACCESS:          0 HIT:          0 MISS:          0 MSHR_MERGE:          0
cpu2->cpu2_ITLB TRANSLATION  ACCESS:          0 HIT:          0 MISS:          0 MSHR_MERGE:          0
cpu2->cpu2_ITLB PREFETCH REQUESTED:          0 ISSUED:          0 USEFUL:          0 USELESS:          0
cpu2->cpu2_ITLB AVERAGE MISS LATENCY: 384.1 cycles
cpu2_ITLB COHERENCE INVALIDATIONS:          0
cpu2_ITLB COHERENCE WRITE-HIT OTHER-SHARER EVENTS:          0
cpu2_DTLB COHERENCE INVALIDATIONS:          0
cpu2_DTLB COHERENCE WRITE-HIT OTHER-SHARER EVENTS:          0
cpu1->cpu1_STLB TOTAL        ACCESS:    1116705 HIT:    1116537 MISS:        168 MSHR_MERGE:          0
cpu1->cpu1_STLB LOAD         ACCESS:    1116705 HIT:    1116537 MISS:        168 MSHR_MERGE:          0
cpu1->cpu1_STLB RFO          ACCESS:          0 HIT:          0 MISS:          0 MSHR_MERGE:          0
cpu1->cpu1_STLB PREFETCH     ACCESS:          0 HIT:          0 MISS:          0 MSHR_MERGE:          0
cpu1->cpu1_STLB WRITE        ACCESS:          0 HIT:          0 MISS:          0 MSHR_MERGE:          0
cpu1->cpu1_STLB TRANSLATION  ACCESS:          0 HIT:          0 MISS:          0 MSHR_MERGE:          0
cpu1->cpu1_STLB PREFETCH REQUESTED:          0 ISSUED:          0 USEFUL:          0 USELESS:          0
cpu1->cpu1_STLB AVERAGE MISS LATENCY: 601 cycles
cpu1_STLB COHERENCE INVALIDATIONS:          0
cpu1_STLB COHERENCE WRITE-HIT OTHER-SHARER EVENTS:          0
cpu1->cpu1_L2C TOTAL        ACCESS:    3328396 HIT:    3041236 MISS:     287160 MSHR_MERGE:          0
cpu1->cpu1_L2C LOAD         ACCESS:    3328199 HIT:    3041236 MISS:     286963 MSHR_MERGE:          0
cpu1->cpu1_L2C RFO          ACCESS:          0 HIT:          0 MISS:          0 MSHR_MERGE:          0
cpu1->cpu1_L2C PREFETCH     ACCESS:          0 HIT:          0 MISS:          0 MSHR_MERGE:          0
cpu1->cpu1_L2C WRITE        ACCESS:          0 HIT:          0 MISS:          0 MSHR_MERGE:          0
cpu1->cpu1_L2C TRANSLATION  ACCESS:        197 HIT:          0 MISS:        197 MSHR_MERGE:          0
cpu1->cpu1_L2C PREFETCH REQUESTED:          0 ISSUED:          0 USEFUL:          0 USELESS:          0
cpu1->cpu1_L2C AVERAGE MISS LATENCY: 114.7 cycles
cpu1_L2C COHERENCE INVALIDATIONS:          0
cpu1_L2C COHERENCE WRITE-HIT OTHER-SHARER EVENTS:          0
cpu1->cpu1_L1I TOTAL        ACCESS:   62676517 HIT:   59293426 MISS:    3383091 MSHR_MERGE:      54892
cpu1->cpu1_L1I LOAD         ACCESS:   62676517 HIT:   59293426 MISS:    3383091 MSHR_MERGE:      54892
cpu1->cpu1_L1I RFO          ACCESS:          0 HIT:          0 MISS:          0 MSHR_MERGE:          0
cpu1->cpu1_L1I PREFETCH     ACCESS:          0 HIT:          0 MISS:          0 MSHR_MERGE:          0
cpu1->cpu1_L1I WRITE        ACCESS:          0 HIT:          0 MISS:          0 MSHR_MERGE:          0
cpu1->cpu1_L1I TRANSLATION  ACCESS:          0 HIT:          0 MISS:          0 MSHR_MERGE:          0
cpu1->cpu1_L1I PREFETCH REQUESTED:          0 ISSUED:          0 USEFUL:          0 USELESS:          0
cpu1->cpu1_L1I AVERAGE MISS LATENCY: 16.97 cycles
cpu1_L1I COHERENCE INVALIDATIONS:          0
cpu1_L1I COHERENCE WRITE-HIT OTHER-SHARER EVENTS:          0
cpu1->cpu1_L1D TOTAL        ACCESS:        339 HIT:        142 MISS:        197 MSHR_MERGE:          0
cpu1->cpu1_L1D LOAD         ACCESS:          0 HIT:          0 MISS:          0 MSHR_MERGE:          0
cpu1->cpu1_L1D RFO          ACCESS:          0 HIT:          0 MISS:          0 MSHR_MERGE:          0
cpu1->cpu1_L1D PREFETCH     ACCESS:          0 HIT:          0 MISS:          0 MSHR_MERGE:          0
cpu1->cpu1_L1D WRITE        ACCESS:          0 HIT:          0 MISS:          0 MSHR_MERGE:          0
cpu1->cpu1_L1D TRANSLATION  ACCESS:        339 HIT:        142 MISS:        197 MSHR_MERGE:          0
cpu1->cpu1_L1D PREFETCH REQUESTED:          0 ISSUED:          0 USEFUL:          0 USELESS:          0
cpu1->cpu1_L1D AVERAGE MISS LATENCY: 201.4 cycles
cpu1_L1D COHERENCE INVALIDATIONS:          0
cpu1_L1D COHERENCE WRITE-HIT OTHER-SHARER EVENTS:          0
cpu1->cpu1_ITLB TOTAL        ACCESS:   60249685 HIT:   59072874 MISS:    1176811 MSHR_MERGE:      60106
cpu1->cpu1_ITLB LOAD         ACCESS:   60249685 HIT:   59072874 MISS:    1176811 MSHR_MERGE:      60106
cpu1->cpu1_ITLB RFO          ACCESS:          0 HIT:          0 MISS:          0 MSHR_MERGE:          0
cpu1->cpu1_ITLB PREFETCH     ACCESS:          0 HIT:          0 MISS:          0 MSHR_MERGE:          0
cpu1->cpu1_ITLB WRITE        ACCESS:          0 HIT:          0 MISS:          0 MSHR_MERGE:          0
cpu1->cpu1_ITLB TRANSLATION  ACCESS:          0 HIT:          0 MISS:          0 MSHR_MERGE:          0
cpu1->cpu1_ITLB PREFETCH REQUESTED:          0 ISSUED:          0 USEFUL:          0 USELESS:          0
cpu1->cpu1_ITLB AVERAGE MISS LATENCY: 4.091 cycles
cpu1_ITLB COHERENCE INVALIDATIONS:          0
cpu1_ITLB COHERENCE WRITE-HIT OTHER-SHARER EVENTS:          0
cpu1_DTLB COHERENCE INVALIDATIONS:          0
cpu1_DTLB COHERENCE WRITE-HIT OTHER-SHARER EVENTS:          0
cpu0->cpu0_STLB TOTAL        ACCESS:    3018185 HIT:    3005244 MISS:      12941 MSHR_MERGE:          0
cpu0->cpu0_STLB LOAD         ACCESS:    3018185 HIT:    3005244 MISS:      12941 MSHR_MERGE:          0
cpu0->cpu0_STLB RFO          ACCESS:          0 HIT:          0 MISS:          0 MSHR_MERGE:          0
cpu0->cpu0_STLB PREFETCH     ACCESS:          0 HIT:          0 MISS:          0 MSHR_MERGE:          0
cpu0->cpu0_STLB WRITE        ACCESS:          0 HIT:          0 MISS:          0 MSHR_MERGE:          0
cpu0->cpu0_STLB TRANSLATION  ACCESS:          0 HIT:          0 MISS:          0 MSHR_MERGE:          0
cpu0->cpu0_STLB PREFETCH REQUESTED:          0 ISSUED:          0 USEFUL:          0 USELESS:          0
cpu0->cpu0_STLB AVERAGE MISS LATENCY: 206.8 cycles
cpu0_STLB COHERENCE INVALIDATIONS:          0
cpu0_STLB COHERENCE WRITE-HIT OTHER-SHARER EVENTS:          0
cpu0->cpu0_L2C TOTAL        ACCESS:    4709961 HIT:    4301234 MISS:     408727 MSHR_MERGE:          0
cpu0->cpu0_L2C LOAD         ACCESS:    3758916 HIT:    3415966 MISS:     342950 MSHR_MERGE:          0
cpu0->cpu0_L2C RFO          ACCESS:     343767 HIT:     292269 MISS:      51498 MSHR_MERGE:          0
cpu0->cpu0_L2C PREFETCH     ACCESS:          0 HIT:          0 MISS:          0 MSHR_MERGE:          0
cpu0->cpu0_L2C WRITE        ACCESS:     579068 HIT:     578810 MISS:        258 MSHR_MERGE:          0
cpu0->cpu0_L2C TRANSLATION  ACCESS:      28210 HIT:      14189 MISS:      14021 MSHR_MERGE:          0
cpu0->cpu0_L2C PREFETCH REQUESTED:          0 ISSUED:          0 USEFUL:          0 USELESS:          0
cpu0->cpu0_L2C AVERAGE MISS LATENCY: 126.8 cycles
cpu0_L2C COHERENCE INVALIDATIONS:          0
cpu0_L2C COHERENCE WRITE-HIT OTHER-SHARER EVENTS:          0
cpu0->cpu0_L1I TOTAL        ACCESS:   25985982 HIT:   25985963 MISS:         19 MSHR_MERGE:          6
cpu0->cpu0_L1I LOAD         ACCESS:   25985982 HIT:   25985963 MISS:         19 MSHR_MERGE:          6
cpu0->cpu0_L1I RFO          ACCESS:          0 HIT:          0 MISS:          0 MSHR_MERGE:          0
cpu0->cpu0_L1I PREFETCH     ACCESS:          0 HIT:          0 MISS:          0 MSHR_MERGE:          0
cpu0->cpu0_L1I WRITE        ACCESS:          0 HIT:          0 MISS:          0 MSHR_MERGE:          0
cpu0->cpu0_L1I TRANSLATION  ACCESS:          0 HIT:          0 MISS:          0 MSHR_MERGE:          0
cpu0->cpu0_L1I PREFETCH REQUESTED:          0 ISSUED:          0 USEFUL:          0 USELESS:          0
cpu0->cpu0_L1I AVERAGE MISS LATENCY: 186.9 cycles
cpu0_L1I COHERENCE INVALIDATIONS:          0
cpu0_L1I COHERENCE WRITE-HIT OTHER-SHARER EVENTS:          0
cpu0->cpu0_L1D TOTAL        ACCESS:   63892694 HIT:   59680796 MISS:    4211898 MSHR_MERGE:      80736
cpu0->cpu0_L1D LOAD         ACCESS:   16844659 HIT:   13075153 MISS:    3769506 MSHR_MERGE:      10551
cpu0->cpu0_L1D RFO          ACCESS:          0 HIT:          0 MISS:          0 MSHR_MERGE:          0
cpu0->cpu0_L1D PREFETCH     ACCESS:          0 HIT:          0 MISS:          0 MSHR_MERGE:          0
cpu0->cpu0_L1D WRITE        ACCESS:   47016675 HIT:   46602498 MISS:     414177 MSHR_MERGE:      70180
cpu0->cpu0_L1D TRANSLATION  ACCESS:      31360 HIT:       3145 MISS:      28215 MSHR_MERGE:          5
cpu0->cpu0_L1D PREFETCH REQUESTED:          0 ISSUED:          0 USEFUL:          0 USELESS:          0
cpu0->cpu0_L1D AVERAGE MISS LATENCY: 19.64 cycles
cpu0_L1D COHERENCE INVALIDATIONS:          0
cpu0_L1D COHERENCE WRITE-HIT OTHER-SHARER EVENTS:          0
cpu0->cpu0_ITLB TOTAL        ACCESS:   23752840 HIT:   23752840 MISS:          0 MSHR_MERGE:          0
cpu0->cpu0_ITLB LOAD         ACCESS:   23752840 HIT:   23752840 MISS:          0 MSHR_MERGE:          0
cpu0->cpu0_ITLB RFO          ACCESS:          0 HIT:          0 MISS:          0 MSHR_MERGE:          0
cpu0->cpu0_ITLB PREFETCH     ACCESS:          0 HIT:          0 MISS:          0 MSHR_MERGE:          0
cpu0->cpu0_ITLB WRITE        ACCESS:          0 HIT:          0 MISS:          0 MSHR_MERGE:          0
cpu0->cpu0_ITLB TRANSLATION  ACCESS:          0 HIT:          0 MISS:          0 MSHR_MERGE:          0
cpu0->cpu0_ITLB PREFETCH REQUESTED:          0 ISSUED:          0 USEFUL:          0 USELESS:          0
cpu0->cpu0_ITLB AVERAGE MISS LATENCY: - cycles
cpu0_ITLB COHERENCE INVALIDATIONS:          0
cpu0_ITLB COHERENCE WRITE-HIT OTHER-SHARER EVENTS:          0
cpu0->cpu0_DTLB TOTAL        ACCESS:   62055427 HIT:   58867451 MISS:    3187976 MSHR_MERGE:     169791
cpu0->cpu0_DTLB LOAD         ACCESS:   62055427 HIT:   58867451 MISS:    3187976 MSHR_MERGE:     169791
cpu0->cpu0_DTLB RFO          ACCESS:          0 HIT:          0 MISS:          0 MSHR_MERGE:          0
cpu0->cpu0_DTLB PREFETCH     ACCESS:          0 HIT:          0 MISS:          0 MSHR_MERGE:          0
cpu0->cpu0_DTLB WRITE        ACCESS:          0 HIT:          0 MISS:          0 MSHR_MERGE:          0
cpu0->cpu0_DTLB TRANSLATION  ACCESS:          0 HIT:          0 MISS:          0 MSHR_MERGE:          0
cpu0->cpu0_DTLB PREFETCH REQUESTED:          0 ISSUED:          0 USEFUL:          0 USELESS:          0
cpu0->cpu0_DTLB AVERAGE MISS LATENCY: 4.891 cycles
cpu0_DTLB COHERENCE INVALIDATIONS:          0
cpu0_DTLB COHERENCE WRITE-HIT OTHER-SHARER EVENTS:          0
cpu0->LLC TOTAL        ACCESS:     512244 HIT:     282276 MISS:     229968 MSHR_MERGE:      34748
cpu0->LLC LOAD         ACCESS:     342950 HIT:     157579 MISS:     185371 MSHR_MERGE:      27345
cpu0->LLC RFO          ACCESS:      51497 HIT:      17904 MISS:      33593 MSHR_MERGE:       7403
cpu0->LLC PREFETCH     ACCESS:          0 HIT:          0 MISS:          0 MSHR_MERGE:          0
cpu0->LLC WRITE        ACCESS:     103776 HIT:     101672 MISS:       2104 MSHR_MERGE:          0
cpu0->LLC TRANSLATION  ACCESS:      14021 HIT:       5121 MISS:       8900 MSHR_MERGE:          0
cpu0->LLC PREFETCH REQUESTED:          0 ISSUED:          0 USEFUL:          0 USELESS:          0
cpu0->LLC AVERAGE MISS LATENCY: 1112 cycles
cpu1->LLC TOTAL        ACCESS:     287160 HIT:     130432 MISS:     156728 MSHR_MERGE:      26849
cpu1->LLC LOAD         ACCESS:     286963 HIT:     130432 MISS:     156531 MSHR_MERGE:      26849
cpu1->LLC RFO          ACCESS:          0 HIT:          0 MISS:          0 MSHR_MERGE:          0
cpu1->LLC PREFETCH     ACCESS:          0 HIT:          0 MISS:          0 MSHR_MERGE:          0
cpu1->LLC WRITE        ACCESS:          0 HIT:          0 MISS:          0 MSHR_MERGE:          0
cpu1->LLC TRANSLATION  ACCESS:        197 HIT:          0 MISS:        197 MSHR_MERGE:          0
cpu1->LLC PREFETCH REQUESTED:          0 ISSUED:          0 USEFUL:          0 USELESS:          0
cpu1->LLC AVERAGE MISS LATENCY: 1916 cycles
cpu2->LLC TOTAL        ACCESS:         54 HIT:         33 MISS:         21 MSHR_MERGE:          0
cpu2->LLC LOAD         ACCESS:         34 HIT:         33 MISS:          1 MSHR_MERGE:          0
cpu2->LLC RFO          ACCESS:          0 HIT:          0 MISS:          0 MSHR_MERGE:          0
cpu2->LLC PREFETCH     ACCESS:          0 HIT:          0 MISS:          0 MSHR_MERGE:          0
cpu2->LLC WRITE        ACCESS:          0 HIT:          0 MISS:          0 MSHR_MERGE:          0
cpu2->LLC TRANSLATION  ACCESS:         20 HIT:          0 MISS:         20 MSHR_MERGE:          0
cpu2->LLC PREFETCH REQUESTED:          0 ISSUED:          0 USEFUL:          0 USELESS:          0
cpu2->LLC AVERAGE MISS LATENCY: 3.813e+06 cycles
cpu3->LLC TOTAL        ACCESS:         54 HIT:          1 MISS:         53 MSHR_MERGE:         17
cpu3->LLC LOAD         ACCESS:         34 HIT:          1 MISS:         33 MSHR_MERGE:         17
cpu3->LLC RFO          ACCESS:          0 HIT:          0 MISS:          0 MSHR_MERGE:          0
cpu3->LLC PREFETCH     ACCESS:          0 HIT:          0 MISS:          0 MSHR_MERGE:          0
cpu3->LLC WRITE        ACCESS:          0 HIT:          0 MISS:          0 MSHR_MERGE:          0
cpu3->LLC TRANSLATION  ACCESS:         20 HIT:          0 MISS:         20 MSHR_MERGE:          0
cpu3->LLC PREFETCH REQUESTED:          0 ISSUED:          0 USEFUL:          0 USELESS:          0
cpu3->LLC AVERAGE MISS LATENCY: 1.816e+06 cycles
cpu4->LLC TOTAL        ACCESS:     512379 HIT:     305021 MISS:     207358 MSHR_MERGE:     161396
cpu4->LLC LOAD         ACCESS:     343026 HIT:     178821 MISS:     164205 MSHR_MERGE:     136136
cpu4->LLC RFO          ACCESS:      51536 HIT:      18859 MISS:      32677 MSHR_MERGE:      25260
cpu4->LLC PREFETCH     ACCESS:          0 HIT:          0 MISS:          0 MSHR_MERGE:          0
cpu4->LLC WRITE        ACCESS:     103851 HIT:     102281 MISS:       1570 MSHR_MERGE:          0
cpu4->LLC TRANSLATION  ACCESS:      13966 HIT:       5060 MISS:       8906 MSHR_MERGE:          0
cpu4->LLC PREFETCH REQUESTED:          0 ISSUED:          0 USEFUL:          0 USELESS:          0
cpu4->LLC AVERAGE MISS LATENCY: 441.8 cycles
cpu5->LLC TOTAL        ACCESS:     287494 HIT:     143466 MISS:     144028 MSHR_MERGE:     116924
cpu5->LLC LOAD         ACCESS:     287297 HIT:     143466 MISS:     143831 MSHR_MERGE:     116924
cpu5->LLC RFO          ACCESS:          0 HIT:          0 MISS:          0 MSHR_MERGE:          0
cpu5->LLC PREFETCH     ACCESS:          0 HIT:          0 MISS:          0 MSHR_MERGE:          0
cpu5->LLC WRITE        ACCESS:          0 HIT:          0 MISS:          0 MSHR_MERGE:          0
cpu5->LLC TRANSLATION  ACCESS:        197 HIT:          0 MISS:        197 MSHR_MERGE:          0
cpu5->LLC PREFETCH REQUESTED:          0 ISSUED:          0 USEFUL:          0 USELESS:          0
cpu5->LLC AVERAGE MISS LATENCY: 650.7 cycles
cpu6->LLC TOTAL        ACCESS:         54 HIT:         33 MISS:         21 MSHR_MERGE:          1
cpu6->LLC LOAD         ACCESS:         34 HIT:         33 MISS:          1 MSHR_MERGE:          1
cpu6->LLC RFO          ACCESS:          0 HIT:          0 MISS:          0 MSHR_MERGE:          0
cpu6->LLC PREFETCH     ACCESS:          0 HIT:          0 MISS:          0 MSHR_MERGE:          0
cpu6->LLC WRITE        ACCESS:          0 HIT:          0 MISS:          0 MSHR_MERGE:          0
cpu6->LLC TRANSLATION  ACCESS:         20 HIT:          0 MISS:         20 MSHR_MERGE:          0
cpu6->LLC PREFETCH REQUESTED:          0 ISSUED:          0 USEFUL:          0 USELESS:          0
cpu6->LLC AVERAGE MISS LATENCY: 3.631e+06 cycles
cpu7->LLC TOTAL        ACCESS:         54 HIT:          5 MISS:         49 MSHR_MERGE:         11
cpu7->LLC LOAD         ACCESS:         34 HIT:          5 MISS:         29 MSHR_MERGE:         11
cpu7->LLC RFO          ACCESS:          0 HIT:          0 MISS:          0 MSHR_MERGE:          0
cpu7->LLC PREFETCH     ACCESS:          0 HIT:          0 MISS:          0 MSHR_MERGE:          0
cpu7->LLC WRITE        ACCESS:          0 HIT:          0 MISS:          0 MSHR_MERGE:          0
cpu7->LLC TRANSLATION  ACCESS:         20 HIT:          0 MISS:         20 MSHR_MERGE:          0
cpu7->LLC PREFETCH REQUESTED:          0 ISSUED:          0 USEFUL:          0 USELESS:          0
cpu7->LLC AVERAGE MISS LATENCY: 2.383e+06 cycles
LLC COHERENCE INVALIDATIONS:     211855
LLC COHERENCE WRITE-HIT OTHER-SHARER EVENTS:     179593

DRAM Statistics

Channel 0 RQ ROW_BUFFER_HIT:       1302
  ROW_BUFFER_MISS:     393191
  AVG DBUS CONGESTED CYCLE: 12.63
Channel 0 WQ ROW_BUFFER_HIT:      13933
  ROW_BUFFER_MISS:      57751
  FULL:          0
Channel 0 REFRESHES ISSUED:      13051

VMEM ALIASED FILLS (cross-CPU shared-page hits): 26712
