[VMEM] WARNING: physical memory size is smaller than virtual memory size.

*** ChampSim Multicore Out-of-Order Simulator ***
Warmup Instructions: 50000000
Simulation Instructions: 100000000
Number of CPUs: 8
Page size: 4096

Off-chip DRAM Size: 16 GiB Channels: 1 Width: 64-bit Data Rate: 3205 MT/s
Heartbeat CPU 3 instructions: 10000002 cycles: 2508105 heartbeat IPC: 3.987 cumulative IPC: 3.987 (Simulation time: 00 hr 11 min 00 sec)
Heartbeat CPU 2 instructions: 10000003 cycles: 2508181 heartbeat IPC: 3.987 cumulative IPC: 3.987 (Simulation time: 00 hr 11 min 00 sec)
Heartbeat CPU 6 instructions: 10000001 cycles: 2508181 heartbeat IPC: 3.987 cumulative IPC: 3.987 (Simulation time: 00 hr 11 min 00 sec)
Heartbeat CPU 7 instructions: 10000002 cycles: 2508302 heartbeat IPC: 3.987 cumulative IPC: 3.987 (Simulation time: 00 hr 11 min 00 sec)
Heartbeat CPU 4 instructions: 10000003 cycles: 2979789 heartbeat IPC: 3.356 cumulative IPC: 3.356 (Simulation time: 00 hr 12 min 50 sec)
Heartbeat CPU 0 instructions: 10000000 cycles: 2979930 heartbeat IPC: 3.356 cumulative IPC: 3.356 (Simulation time: 00 hr 12 min 50 sec)
Heartbeat CPU 1 instructions: 10000002 cycles: 4085409 heartbeat IPC: 2.448 cumulative IPC: 2.448 (Simulation time: 00 hr 17 min 04 sec)
Heartbeat CPU 5 instructions: 10000002 cycles: 4089303 heartbeat IPC: 2.445 cumulative IPC: 2.445 (Simulation time: 00 hr 17 min 05 sec)
Heartbeat CPU 3 instructions: 20000002 cycles: 5008105 heartbeat IPC: 4 cumulative IPC: 3.994 (Simulation time: 00 hr 20 min 43 sec)
Heartbeat CPU 2 instructions: 20000003 cycles: 5008181 heartbeat IPC: 4 cumulative IPC: 3.993 (Simulation time: 00 hr 20 min 43 sec)
Heartbeat CPU 6 instructions: 20000001 cycles: 5008181 heartbeat IPC: 4 cumulative IPC: 3.993 (Simulation time: 00 hr 20 min 43 sec)
Heartbeat CPU 7 instructions: 20000002 cycles: 5008302 heartbeat IPC: 4 cumulative IPC: 3.993 (Simulation time: 00 hr 20 min 43 sec)
Heartbeat CPU 3 instructions: 30000002 cycles: 7508105 heartbeat IPC: 4 cumulative IPC: 3.996 (Simulation time: 00 hr 30 min 17 sec)
Heartbeat CPU 2 instructions: 30000003 cycles: 7508181 heartbeat IPC: 4 cumulative IPC: 3.996 (Simulation time: 00 hr 30 min 17 sec)
Heartbeat CPU 6 instructions: 30000001 cycles: 7508181 heartbeat IPC: 4 cumulative IPC: 3.996 (Simulation time: 00 hr 30 min 17 sec)
Heartbeat CPU 7 instructions: 30000002 cycles: 7508302 heartbeat IPC: 4 cumulative IPC: 3.996 (Simulation time: 00 hr 30 min 17 sec)
Heartbeat CPU 1 instructions: 20000004 cycles: 7759538 heartbeat IPC: 2.722 cumulative IPC: 2.577 (Simulation time: 00 hr 31 min 16 sec)
Heartbeat CPU 5 instructions: 20000004 cycles: 7777996 heartbeat IPC: 2.711 cumulative IPC: 2.571 (Simulation time: 00 hr 31 min 20 sec)
Heartbeat CPU 3 instructions: 40000002 cycles: 10008105 heartbeat IPC: 4 cumulative IPC: 3.997 (Simulation time: 00 hr 39 min 55 sec)
Heartbeat CPU 2 instructions: 40000003 cycles: 10008181 heartbeat IPC: 4 cumulative IPC: 3.997 (Simulation time: 00 hr 39 min 55 sec)
Heartbeat CPU 6 instructions: 40000001 cycles: 10008181 heartbeat IPC: 4 cumulative IPC: 3.997 (Simulation time: 00 hr 39 min 55 sec)
Heartbeat CPU 7 instructions: 40000002 cycles: 10008302 heartbeat IPC: 4 cumulative IPC: 3.997 (Simulation time: 00 hr 39 min 55 sec)
Heartbeat CPU 1 instructions: 30000005 cycles: 11456214 heartbeat IPC: 2.705 cumulative IPC: 2.619 (Simulation time: 00 hr 45 min 16 sec)
Heartbeat CPU 5 instructions: 30000005 cycles: 11489410 heartbeat IPC: 2.694 cumulative IPC: 2.611 (Simulation time: 00 hr 45 min 23 sec)
Heartbeat CPU 3 instructions: 50000002 cycles: 12508105 heartbeat IPC: 4 cumulative IPC: 3.997 (Simulation time: 00 hr 49 min 02 sec)
Warmup finished CPU 3 instructions: 50000002 cycles: 12508105 cumulative IPC: 3.997 (Simulation time: 00 hr 49 min 02 sec)
Heartbeat CPU 2 instructions: 50000003 cycles: 12508181 heartbeat IPC: 4 cumulative IPC: 3.997 (Simulation time: 00 hr 49 min 02 sec)
Heartbeat CPU 6 instructions: 50000001 cycles: 12508181 heartbeat IPC: 4 cumulative IPC: 3.997 (Simulation time: 00 hr 49 min 02 sec)
Warmup finished CPU 6 instructions: 50000001 cycles: 12508181 cumulative IPC: 3.997 (Simulation time: 00 hr 49 min 02 sec)
Warmup finished CPU 2 instructions: 50000003 cycles: 12508181 cumulative IPC: 3.997 (Simulation time: 00 hr 49 min 02 sec)
Heartbeat CPU 7 instructions: 50000002 cycles: 12508302 heartbeat IPC: 4 cumulative IPC: 3.997 (Simulation time: 00 hr 49 min 02 sec)
Warmup finished CPU 7 instructions: 50000002 cycles: 12508302 cumulative IPC: 3.997 (Simulation time: 00 hr 49 min 02 sec)
Heartbeat CPU 4 instructions: 20000005 cycles: 13854933 heartbeat IPC: 0.9195 cumulative IPC: 1.444 (Simulation time: 00 hr 54 min 09 sec)
Heartbeat CPU 0 instructions: 20000000 cycles: 13855191 heartbeat IPC: 0.9195 cumulative IPC: 1.444 (Simulation time: 00 hr 54 min 09 sec)
Heartbeat CPU 3 instructions: 60000002 cycles: 15008105 heartbeat IPC: 4 cumulative IPC: 3.998 (Simulation time: 00 hr 58 min 20 sec)
Heartbeat CPU 2 instructions: 60000003 cycles: 15008181 heartbeat IPC: 4 cumulative IPC: 3.998 (Simulation time: 00 hr 58 min 20 sec)
Heartbeat CPU 6 instructions: 60000001 cycles: 15008181 heartbeat IPC: 4 cumulative IPC: 3.998 (Simulation time: 00 hr 58 min 20 sec)
Heartbeat CPU 7 instructions: 60000002 cycles: 15008302 heartbeat IPC: 4 cumulative IPC: 3.998 (Simulation time: 00 hr 58 min 20 sec)
Heartbeat CPU 1 instructions: 40000006 cycles: 15150553 heartbeat IPC: 2.707 cumulative IPC: 2.64 (Simulation time: 00 hr 58 min 51 sec)
Heartbeat CPU 5 instructions: 40000006 cycles: 15198271 heartbeat IPC: 2.696 cumulative IPC: 2.632 (Simulation time: 00 hr 59 min 01 sec)
Heartbeat CPU 3 instructions: 70000002 cycles: 17508105 heartbeat IPC: 4 cumulative IPC: 3.998 (Simulation time: 01 hr 07 min 10 sec)
Heartbeat CPU 2 instructions: 70000003 cycles: 17508181 heartbeat IPC: 4 cumulative IPC: 3.998 (Simulation time: 01 hr 07 min 10 sec)
Heartbeat CPU 6 instructions: 70000001 cycles: 17508181 heartbeat IPC: 4 cumulative IPC: 3.998 (Simulation time: 01 hr 07 min 10 sec)
Heartbeat CPU 7 instructions: 70000002 cycles: 17508302 heartbeat IPC: 4 cumulative IPC: 3.998 (Simulation time: 01 hr 07 min 10 sec)
Warmup finished CPU 1 instructions: 50000003 cycles: 18866311 cumulative IPC: 2.65 (Simulation time: 01 hr 12 min 07 sec)
Heartbeat CPU 1 instructions: 50000007 cycles: 18866312 heartbeat IPC: 2.691 cumulative IPC: 2.65 (Simulation time: 01 hr 12 min 07 sec)
Warmup finished CPU 5 instructions: 50000003 cycles: 18928785 cumulative IPC: 2.641 (Simulation time: 01 hr 12 min 20 sec)
Heartbeat CPU 5 instructions: 50000007 cycles: 18928786 heartbeat IPC: 2.681 cumulative IPC: 2.641 (Simulation time: 01 hr 12 min 20 sec)
Heartbeat CPU 3 instructions: 80000002 cycles: 20008105 heartbeat IPC: 4 cumulative IPC: 3.998 (Simulation time: 01 hr 16 min 13 sec)
Heartbeat CPU 2 instructions: 80000003 cycles: 20008181 heartbeat IPC: 4 cumulative IPC: 3.998 (Simulation time: 01 hr 16 min 13 sec)
Heartbeat CPU 6 instructions: 80000001 cycles: 20008181 heartbeat IPC: 4 cumulative IPC: 3.998 (Simulation time: 01 hr 16 min 13 sec)
Heartbeat CPU 7 instructions: 80000002 cycles: 20008302 heartbeat IPC: 4 cumulative IPC: 3.998 (Simulation time: 01 hr 16 min 13 sec)
Heartbeat CPU 1 instructions: 60000010 cycles: 22485906 heartbeat IPC: 2.763 cumulative IPC: 2.668 (Simulation time: 01 hr 25 min 18 sec)
Heartbeat CPU 3 instructions: 90000002 cycles: 22508105 heartbeat IPC: 4 cumulative IPC: 3.999 (Simulation time: 01 hr 25 min 23 sec)
Heartbeat CPU 2 instructions: 90000003 cycles: 22508181 heartbeat IPC: 4 cumulative IPC: 3.999 (Simulation time: 01 hr 25 min 23 sec)
Heartbeat CPU 6 instructions: 90000001 cycles: 22508181 heartbeat IPC: 4 cumulative IPC: 3.999 (Simulation time: 01 hr 25 min 23 sec)
Heartbeat CPU 7 instructions: 90000002 cycles: 22508302 heartbeat IPC: 4 cumulative IPC: 3.999 (Simulation time: 01 hr 25 min 23 sec)
Heartbeat CPU 5 instructions: 60000010 cycles: 22564182 heartbeat IPC: 2.751 cumulative IPC: 2.659 (Simulation time: 01 hr 25 min 36 sec)
Heartbeat CPU 3 instructions: 100000002 cycles: 25008105 heartbeat IPC: 4 cumulative IPC: 3.999 (Simulation time: 01 hr 34 min 53 sec)
Heartbeat CPU 2 instructions: 100000003 cycles: 25008181 heartbeat IPC: 4 cumulative IPC: 3.999 (Simulation time: 01 hr 34 min 53 sec)
Heartbeat CPU 6 instructions: 100000001 cycles: 25008181 heartbeat IPC: 4 cumulative IPC: 3.999 (Simulation time: 01 hr 34 min 53 sec)
Heartbeat CPU 7 instructions: 100000002 cycles: 25008302 heartbeat IPC: 4 cumulative IPC: 3.999 (Simulation time: 01 hr 34 min 53 sec)
Heartbeat CPU 1 instructions: 70000012 cycles: 26177998 heartbeat IPC: 2.708 cumulative IPC: 2.674 (Simulation time: 01 hr 39 min 22 sec)
Heartbeat CPU 5 instructions: 70000012 cycles: 26271056 heartbeat IPC: 2.698 cumulative IPC: 2.665 (Simulation time: 01 hr 39 min 44 sec)
Heartbeat CPU 3 instructions: 110000002 cycles: 27508105 heartbeat IPC: 4 cumulative IPC: 3.999 (Simulation time: 01 hr 44 min 20 sec)
Heartbeat CPU 2 instructions: 110000003 cycles: 27508181 heartbeat IPC: 4 cumulative IPC: 3.999 (Simulation time: 01 hr 44 min 20 sec)
Heartbeat CPU 6 instructions: 110000001 cycles: 27508181 heartbeat IPC: 4 cumulative IPC: 3.999 (Simulation time: 01 hr 44 min 20 sec)
Heartbeat CPU 7 instructions: 110000002 cycles: 27508302 heartbeat IPC: 4 cumulative IPC: 3.999 (Simulation time: 01 hr 44 min 20 sec)
Heartbeat CPU 4 instructions: 30000005 cycles: 28995473 heartbeat IPC: 0.6605 cumulative IPC: 1.035 (Simulation time: 01 hr 49 min 54 sec)
Heartbeat CPU 0 instructions: 30000000 cycles: 28995623 heartbeat IPC: 0.6605 cumulative IPC: 1.035 (Simulation time: 01 hr 49 min 54 sec)
Heartbeat CPU 1 instructions: 80000012 cycles: 29863890 heartbeat IPC: 2.713 cumulative IPC: 2.679 (Simulation time: 01 hr 53 min 10 sec)
Heartbeat CPU 5 instructions: 80000012 cycles: 29972482 heartbeat IPC: 2.702 cumulative IPC: 2.669 (Simulation time: 01 hr 53 min 35 sec)
Heartbeat CPU 3 instructions: 120000002 cycles: 30008105 heartbeat IPC: 4 cumulative IPC: 3.999 (Simulation time: 01 hr 53 min 43 sec)
Heartbeat CPU 2 instructions: 120000003 cycles: 30008181 heartbeat IPC: 4 cumulative IPC: 3.999 (Simulation time: 01 hr 53 min 43 sec)
Heartbeat CPU 6 instructions: 120000001 cycles: 30008181 heartbeat IPC: 4 cumulative IPC: 3.999 (Simulation time: 01 hr 53 min 43 sec)
Heartbeat CPU 7 instructions: 120000002 cycles: 30008302 heartbeat IPC: 4 cumulative IPC: 3.999 (Simulation time: 01 hr 53 min 43 sec)
Heartbeat CPU 3 instructions: 130000002 cycles: 32508105 heartbeat IPC: 4 cumulative IPC: 3.999 (Simulation time: 02 hr 02 min 56 sec)
Heartbeat CPU 2 instructions: 130000003 cycles: 32508181 heartbeat IPC: 4 cumulative IPC: 3.999 (Simulation time: 02 hr 02 min 56 sec)
Heartbeat CPU 6 instructions: 130000001 cycles: 32508181 heartbeat IPC: 4 cumulative IPC: 3.999 (Simulation time: 02 hr 02 min 56 sec)
Heartbeat CPU 7 instructions: 130000002 cycles: 32508302 heartbeat IPC: 4 cumulative IPC: 3.999 (Simulation time: 02 hr 02 min 56 sec)
Heartbeat CPU 1 instructions: 90000015 cycles: 33524120 heartbeat IPC: 2.732 cumulative IPC: 2.685 (Simulation time: 02 hr 06 min 32 sec)
Heartbeat CPU 5 instructions: 90000015 cycles: 33647951 heartbeat IPC: 2.721 cumulative IPC: 2.675 (Simulation time: 02 hr 06 min 57 sec)
Heartbeat CPU 3 instructions: 140000002 cycles: 35008105 heartbeat IPC: 4 cumulative IPC: 3.999 (Simulation time: 02 hr 11 min 59 sec)
Heartbeat CPU 2 instructions: 140000003 cycles: 35008181 heartbeat IPC: 4 cumulative IPC: 3.999 (Simulation time: 02 hr 11 min 59 sec)
Heartbeat CPU 6 instructions: 140000001 cycles: 35008181 heartbeat IPC: 4 cumulative IPC: 3.999 (Simulation time: 02 hr 11 min 59 sec)
Heartbeat CPU 7 instructions: 140000002 cycles: 35008302 heartbeat IPC: 4 cumulative IPC: 3.999 (Simulation time: 02 hr 11 min 59 sec)
Heartbeat CPU 1 instructions: 100000016 cycles: 37196173 heartbeat IPC: 2.723 cumulative IPC: 2.688 (Simulation time: 02 hr 20 min 14 sec)
Heartbeat CPU 5 instructions: 100000016 cycles: 37335198 heartbeat IPC: 2.712 cumulative IPC: 2.678 (Simulation time: 02 hr 20 min 46 sec)
Heartbeat CPU 3 instructions: 150000002 cycles: 37508105 heartbeat IPC: 4 cumulative IPC: 3.999 (Simulation time: 02 hr 21 min 24 sec)
Heartbeat CPU 2 instructions: 150000003 cycles: 37508181 heartbeat IPC: 4 cumulative IPC: 3.999 (Simulation time: 02 hr 21 min 24 sec)
Heartbeat CPU 6 instructions: 150000001 cycles: 37508181 heartbeat IPC: 4 cumulative IPC: 3.999 (Simulation time: 02 hr 21 min 24 sec)
Heartbeat CPU 7 instructions: 150000002 cycles: 37508302 heartbeat IPC: 4 cumulative IPC: 3.999 (Simulation time: 02 hr 21 min 24 sec)
Heartbeat CPU 3 instructions: 160000002 cycles: 40008105 heartbeat IPC: 4 cumulative IPC: 3.999 (Simulation time: 02 hr 30 min 47 sec)
Heartbeat CPU 2 instructions: 160000003 cycles: 40008181 heartbeat IPC: 4 cumulative IPC: 3.999 (Simulation time: 02 hr 30 min 47 sec)
Heartbeat CPU 6 instructions: 160000001 cycles: 40008181 heartbeat IPC: 4 cumulative IPC: 3.999 (Simulation time: 02 hr 30 min 47 sec)
Heartbeat CPU 7 instructions: 160000002 cycles: 40008302 heartbeat IPC: 4 cumulative IPC: 3.999 (Simulation time: 02 hr 30 min 47 sec)
Heartbeat CPU 1 instructions: 110000016 cycles: 40865412 heartbeat IPC: 2.725 cumulative IPC: 2.692 (Simulation time: 02 hr 33 min 58 sec)
Heartbeat CPU 5 instructions: 110000016 cycles: 41019622 heartbeat IPC: 2.714 cumulative IPC: 2.682 (Simulation time: 02 hr 34 min 33 sec)
Heartbeat CPU 3 instructions: 170000002 cycles: 42508105 heartbeat IPC: 4 cumulative IPC: 3.999 (Simulation time: 02 hr 40 min 05 sec)
Heartbeat CPU 2 instructions: 170000003 cycles: 42508181 heartbeat IPC: 4 cumulative IPC: 3.999 (Simulation time: 02 hr 40 min 05 sec)
Heartbeat CPU 6 instructions: 170000001 cycles: 42508181 heartbeat IPC: 4 cumulative IPC: 3.999 (Simulation time: 02 hr 40 min 05 sec)
Heartbeat CPU 7 instructions: 170000002 cycles: 42508302 heartbeat IPC: 4 cumulative IPC: 3.999 (Simulation time: 02 hr 40 min 05 sec)
Heartbeat CPU 4 instructions: 40000005 cycles: 44448351 heartbeat IPC: 0.6471 cumulative IPC: 0.8999 (Simulation time: 02 hr 47 min 13 sec)
Heartbeat CPU 0 instructions: 40000000 cycles: 44448573 heartbeat IPC: 0.6471 cumulative IPC: 0.8999 (Simulation time: 02 hr 47 min 13 sec)
Heartbeat CPU 1 instructions: 120000018 cycles: 44592472 heartbeat IPC: 2.683 cumulative IPC: 2.691 (Simulation time: 02 hr 47 min 45 sec)
Heartbeat CPU 5 instructions: 120000018 cycles: 44761665 heartbeat IPC: 2.672 cumulative IPC: 2.681 (Simulation time: 02 hr 48 min 23 sec)
Heartbeat CPU 3 instructions: 180000002 cycles: 45008105 heartbeat IPC: 4 cumulative IPC: 3.999 (Simulation time: 02 hr 49 min 18 sec)
Heartbeat CPU 2 instructions: 180000003 cycles: 45008181 heartbeat IPC: 4 cumulative IPC: 3.999 (Simulation time: 02 hr 49 min 18 sec)
Heartbeat CPU 6 instructions: 180000001 cycles: 45008181 heartbeat IPC: 4 cumulative IPC: 3.999 (Simulation time: 02 hr 49 min 18 sec)
Heartbeat CPU 7 instructions: 180000002 cycles: 45008302 heartbeat IPC: 4 cumulative IPC: 3.999 (Simulation time: 02 hr 49 min 18 sec)
Heartbeat CPU 3 instructions: 190000002 cycles: 47508105 heartbeat IPC: 4 cumulative IPC: 3.999 (Simulation time: 02 hr 58 min 40 sec)
Heartbeat CPU 2 instructions: 190000003 cycles: 47508181 heartbeat IPC: 4 cumulative IPC: 3.999 (Simulation time: 02 hr 58 min 40 sec)
Heartbeat CPU 6 instructions: 190000001 cycles: 47508181 heartbeat IPC: 4 cumulative IPC: 3.999 (Simulation time: 02 hr 58 min 40 sec)
Heartbeat CPU 7 instructions: 190000002 cycles: 47508302 heartbeat IPC: 4 cumulative IPC: 3.999 (Simulation time: 02 hr 58 min 40 sec)
Heartbeat CPU 1 instructions: 130000020 cycles: 48282788 heartbeat IPC: 2.71 cumulative IPC: 2.692 (Simulation time: 03 hr 01 min 34 sec)
Heartbeat CPU 5 instructions: 130000020 cycles: 48467443 heartbeat IPC: 2.698 cumulative IPC: 2.682 (Simulation time: 03 hr 02 min 16 sec)
Heartbeat CPU 3 instructions: 200000002 cycles: 50008105 heartbeat IPC: 4 cumulative IPC: 3.999 (Simulation time: 03 hr 07 min 56 sec)
Heartbeat CPU 2 instructions: 200000003 cycles: 50008181 heartbeat IPC: 4 cumulative IPC: 3.999 (Simulation time: 03 hr 07 min 56 sec)
Heartbeat CPU 6 instructions: 200000001 cycles: 50008181 heartbeat IPC: 4 cumulative IPC: 3.999 (Simulation time: 03 hr 07 min 56 sec)
Heartbeat CPU 7 instructions: 200000002 cycles: 50008302 heartbeat IPC: 4 cumulative IPC: 3.999 (Simulation time: 03 hr 07 min 56 sec)
Heartbeat CPU 1 instructions: 140000023 cycles: 51850942 heartbeat IPC: 2.803 cumulative IPC: 2.7 (Simulation time: 03 hr 14 min 34 sec)
Heartbeat CPU 5 instructions: 140000023 cycles: 52050672 heartbeat IPC: 2.791 cumulative IPC: 2.69 (Simulation time: 03 hr 15 min 18 sec)
Heartbeat CPU 3 instructions: 210000002 cycles: 52508105 heartbeat IPC: 4 cumulative IPC: 3.999 (Simulation time: 03 hr 17 min 03 sec)
Heartbeat CPU 2 instructions: 210000003 cycles: 52508181 heartbeat IPC: 4 cumulative IPC: 3.999 (Simulation time: 03 hr 17 min 03 sec)
Heartbeat CPU 6 instructions: 210000001 cycles: 52508181 heartbeat IPC: 4 cumulative IPC: 3.999 (Simulation time: 03 hr 17 min 03 sec)
Heartbeat CPU 7 instructions: 210000002 cycles: 52508302 heartbeat IPC: 4 cumulative IPC: 3.999 (Simulation time: 03 hr 17 min 03 sec)
Heartbeat CPU 3 instructions: 220000002 cycles: 55008105 heartbeat IPC: 4 cumulative IPC: 3.999 (Simulation time: 03 hr 26 min 31 sec)
Heartbeat CPU 2 instructions: 220000003 cycles: 55008181 heartbeat IPC: 4 cumulative IPC: 3.999 (Simulation time: 03 hr 26 min 31 sec)
Heartbeat CPU 6 instructions: 220000001 cycles: 55008181 heartbeat IPC: 4 cumulative IPC: 3.999 (Simulation time: 03 hr 26 min 31 sec)
Heartbeat CPU 7 instructions: 220000002 cycles: 55008302 heartbeat IPC: 4 cumulative IPC: 3.999 (Simulation time: 03 hr 26 min 31 sec)
Heartbeat CPU 1 instructions: 150000023 cycles: 55812687 heartbeat IPC: 2.524 cumulative IPC: 2.688 (Simulation time: 03 hr 29 min 41 sec)
Heartbeat CPU 5 instructions: 150000023 cycles: 56013274 heartbeat IPC: 2.524 cumulative IPC: 2.678 (Simulation time: 03 hr 30 min 30 sec)
Heartbeat CPU 3 instructions: 230000002 cycles: 57508105 heartbeat IPC: 4 cumulative IPC: 3.999 (Simulation time: 03 hr 35 min 25 sec)
Heartbeat CPU 2 instructions: 230000003 cycles: 57508181 heartbeat IPC: 4 cumulative IPC: 3.999 (Simulation time: 03 hr 35 min 25 sec)
Heartbeat CPU 6 instructions: 230000001 cycles: 57508181 heartbeat IPC: 4 cumulative IPC: 3.999 (Simulation time: 03 hr 35 min 25 sec)
Heartbeat CPU 7 instructions: 230000002 cycles: 57508302 heartbeat IPC: 4 cumulative IPC: 3.999 (Simulation time: 03 hr 35 min 25 sec)
Heartbeat CPU 1 instructions: 160000023 cycles: 59646149 heartbeat IPC: 2.609 cumulative IPC: 2.682 (Simulation time: 03 hr 43 min 25 sec)
Heartbeat CPU 5 instructions: 160000023 cycles: 59862303 heartbeat IPC: 2.598 cumulative IPC: 2.673 (Simulation time: 03 hr 44 min 14 sec)
Heartbeat CPU 3 instructions: 240000002 cycles: 60008105 heartbeat IPC: 4 cumulative IPC: 3.999 (Simulation time: 03 hr 44 min 47 sec)
Heartbeat CPU 2 instructions: 240000003 cycles: 60008181 heartbeat IPC: 4 cumulative IPC: 3.999 (Simulation time: 03 hr 44 min 47 sec)
Heartbeat CPU 6 instructions: 240000001 cycles: 60008181 heartbeat IPC: 4 cumulative IPC: 3.999 (Simulation time: 03 hr 44 min 47 sec)
Heartbeat CPU 7 instructions: 240000002 cycles: 60008302 heartbeat IPC: 4 cumulative IPC: 3.999 (Simulation time: 03 hr 44 min 48 sec)
Warmup finished CPU 4 instructions: 50000000 cycles: 60118129 cumulative IPC: 0.8317 (Simulation time: 03 hr 45 min 13 sec)
Heartbeat CPU 4 instructions: 50000005 cycles: 60118140 heartbeat IPC: 0.6382 cumulative IPC: 0.8317 (Simulation time: 03 hr 45 min 13 sec)
Heartbeat CPU 0 instructions: 50000000 cycles: 60118183 heartbeat IPC: 0.6382 cumulative IPC: 0.8317 (Simulation time: 03 hr 45 min 13 sec)
Warmup finished CPU 0 instructions: 50000000 cycles: 60118183 cumulative IPC: 0.8317 (Simulation time: 03 hr 45 min 13 sec)
Warmup complete CPU 7 instructions: 240439526 cycles: 60118183 cumulative IPC: 3.999 (Simulation time: 03 hr 45 min 13 sec)
Warmup complete CPU 6 instructions: 240440009 cycles: 60118183 cumulative IPC: 3.999 (Simulation time: 03 hr 45 min 13 sec)
Warmup complete CPU 5 instructions: 160694149 cycles: 60118183 cumulative IPC: 2.673 (Simulation time: 03 hr 45 min 13 sec)
Warmup complete CPU 4 instructions: 50000035 cycles: 60118183 cumulative IPC: 0.8317 (Simulation time: 03 hr 45 min 13 sec)
Warmup complete CPU 3 instructions: 240440314 cycles: 60118183 cumulative IPC: 3.999 (Simulation time: 03 hr 45 min 13 sec)
Warmup complete CPU 2 instructions: 240440011 cycles: 60118183 cumulative IPC: 3.999 (Simulation time: 03 hr 45 min 13 sec)
Warmup complete CPU 1 instructions: 161292335 cycles: 60118183 cumulative IPC: 2.683 (Simulation time: 03 hr 45 min 13 sec)
Warmup complete CPU 0 instructions: 50000000 cycles: 60118183 cumulative IPC: 0.8317 (Simulation time: 03 hr 45 min 13 sec)
Heartbeat CPU 3 instructions: 250000002 cycles: 62508105 heartbeat IPC: 4 cumulative IPC: 4 (Simulation time: 03 hr 54 min 13 sec)
Heartbeat CPU 2 instructions: 250000003 cycles: 62508181 heartbeat IPC: 4 cumulative IPC: 4 (Simulation time: 03 hr 54 min 13 sec)
Heartbeat CPU 6 instructions: 250000001 cycles: 62508181 heartbeat IPC: 4 cumulative IPC: 4 (Simulation time: 03 hr 54 min 13 sec)
Heartbeat CPU 7 instructions: 250000002 cycles: 62508302 heartbeat IPC: 4 cumulative IPC: 4 (Simulation time: 03 hr 54 min 13 sec)
Heartbeat CPU 1 instructions: 170000026 cycles: 64818992 heartbeat IPC: 1.933 cumulative IPC: 1.852 (Simulation time: 04 hr 03 min 05 sec)
Heartbeat CPU 5 instructions: 170000026 cycles: 64819016 heartbeat IPC: 2.017 cumulative IPC: 1.98 (Simulation time: 04 hr 03 min 05 sec)
Heartbeat CPU 3 instructions: 260000002 cycles: 65008105 heartbeat IPC: 4 cumulative IPC: 4 (Simulation time: 04 hr 03 min 48 sec)
Heartbeat CPU 2 instructions: 260000003 cycles: 65008181 heartbeat IPC: 4 cumulative IPC: 4 (Simulation time: 04 hr 03 min 48 sec)
Heartbeat CPU 6 instructions: 260000001 cycles: 65008181 heartbeat IPC: 4 cumulative IPC: 4 (Simulation time: 04 hr 03 min 48 sec)
Heartbeat CPU 7 instructions: 260000002 cycles: 65008302 heartbeat IPC: 4 cumulative IPC: 4 (Simulation time: 04 hr 03 min 48 sec)
Heartbeat CPU 3 instructions: 270000002 cycles: 67508105 heartbeat IPC: 4 cumulative IPC: 4 (Simulation time: 04 hr 12 min 56 sec)
Heartbeat CPU 2 instructions: 270000003 cycles: 67508181 heartbeat IPC: 4 cumulative IPC: 4 (Simulation time: 04 hr 12 min 56 sec)
Heartbeat CPU 6 instructions: 270000001 cycles: 67508181 heartbeat IPC: 4 cumulative IPC: 4 (Simulation time: 04 hr 12 min 56 sec)
Heartbeat CPU 7 instructions: 270000002 cycles: 67508302 heartbeat IPC: 4 cumulative IPC: 4 (Simulation time: 04 hr 12 min 56 sec)
Heartbeat CPU 3 instructions: 280000002 cycles: 70008105 heartbeat IPC: 4 cumulative IPC: 4 (Simulation time: 04 hr 21 min 47 sec)
Heartbeat CPU 2 instructions: 280000003 cycles: 70008181 heartbeat IPC: 4 cumulative IPC: 4 (Simulation time: 04 hr 21 min 47 sec)
Heartbeat CPU 6 instructions: 280000001 cycles: 70008181 heartbeat IPC: 4 cumulative IPC: 4 (Simulation time: 04 hr 21 min 47 sec)
Heartbeat CPU 7 instructions: 280000002 cycles: 70008302 heartbeat IPC: 4 cumulative IPC: 4 (Simulation time: 04 hr 21 min 47 sec)
Heartbeat CPU 1 instructions: 180000028 cycles: 70064540 heartbeat IPC: 1.906 cumulative IPC: 1.881 (Simulation time: 04 hr 21 min 59 sec)
Heartbeat CPU 5 instructions: 180000028 cycles: 70064547 heartbeat IPC: 1.906 cumulative IPC: 1.941 (Simulation time: 04 hr 21 min 59 sec)
Heartbeat CPU 3 instructions: 290000002 cycles: 72508105 heartbeat IPC: 4 cumulative IPC: 4 (Simulation time: 04 hr 31 min 24 sec)
Heartbeat CPU 2 instructions: 290000003 cycles: 72508181 heartbeat IPC: 4 cumulative IPC: 4 (Simulation time: 04 hr 31 min 24 sec)
Heartbeat CPU 6 instructions: 290000001 cycles: 72508181 heartbeat IPC: 4 cumulative IPC: 4 (Simulation time: 04 hr 31 min 24 sec)
Heartbeat CPU 7 instructions: 290000002 cycles: 72508302 heartbeat IPC: 4 cumulative IPC: 4 (Simulation time: 04 hr 31 min 24 sec)
Heartbeat CPU 3 instructions: 300000002 cycles: 75008105 heartbeat IPC: 4 cumulative IPC: 4 (Simulation time: 04 hr 41 min 23 sec)
Heartbeat CPU 2 instructions: 300000003 cycles: 75008181 heartbeat IPC: 4 cumulative IPC: 4 (Simulation time: 04 hr 41 min 23 sec)
Heartbeat CPU 6 instructions: 300000001 cycles: 75008181 heartbeat IPC: 4 cumulative IPC: 4 (Simulation time: 04 hr 41 min 23 sec)
Heartbeat CPU 7 instructions: 300000002 cycles: 75008302 heartbeat IPC: 4 cumulative IPC: 4 (Simulation time: 04 hr 41 min 23 sec)
Heartbeat CPU 1 instructions: 190000028 cycles: 75165171 heartbeat IPC: 1.961 cumulative IPC: 1.908 (Simulation time: 04 hr 42 min 00 sec)
Heartbeat CPU 5 instructions: 190000028 cycles: 75165195 heartbeat IPC: 1.961 cumulative IPC: 1.948 (Simulation time: 04 hr 42 min 00 sec)
Heartbeat CPU 3 instructions: 310000002 cycles: 77508105 heartbeat IPC: 4 cumulative IPC: 4 (Simulation time: 04 hr 51 min 25 sec)
Heartbeat CPU 2 instructions: 310000003 cycles: 77508181 heartbeat IPC: 4 cumulative IPC: 4 (Simulation time: 04 hr 51 min 25 sec)
Heartbeat CPU 6 instructions: 310000001 cycles: 77508181 heartbeat IPC: 4 cumulative IPC: 4 (Simulation time: 04 hr 51 min 25 sec)
Heartbeat CPU 7 instructions: 310000002 cycles: 77508302 heartbeat IPC: 4 cumulative IPC: 4 (Simulation time: 04 hr 51 min 26 sec)
Heartbeat CPU 0 instructions: 60000000 cycles: 79848037 heartbeat IPC: 0.5068 cumulative IPC: 0.5068 (Simulation time: 05 hr 00 min 45 sec)
Heartbeat CPU 4 instructions: 60000007 cycles: 79848106 heartbeat IPC: 0.5068 cumulative IPC: 0.5068 (Simulation time: 05 hr 00 min 45 sec)
Heartbeat CPU 3 instructions: 320000002 cycles: 80008105 heartbeat IPC: 4 cumulative IPC: 4 (Simulation time: 05 hr 01 min 21 sec)
Heartbeat CPU 2 instructions: 320000003 cycles: 80008181 heartbeat IPC: 4 cumulative IPC: 4 (Simulation time: 05 hr 01 min 21 sec)
Heartbeat CPU 6 instructions: 320000001 cycles: 80008181 heartbeat IPC: 4 cumulative IPC: 4 (Simulation time: 05 hr 01 min 21 sec)
Heartbeat CPU 7 instructions: 320000002 cycles: 80008302 heartbeat IPC: 4 cumulative IPC: 4 (Simulation time: 05 hr 01 min 21 sec)
Heartbeat CPU 1 instructions: 200000028 cycles: 80084429 heartbeat IPC: 2.033 cumulative IPC: 1.939 (Simulation time: 05 hr 01 min 38 sec)
Heartbeat CPU 5 instructions: 200000028 cycles: 80084685 heartbeat IPC: 2.033 cumulative IPC: 1.969 (Simulation time: 05 hr 01 min 38 sec)
Heartbeat CPU 3 instructions: 330000002 cycles: 82508105 heartbeat IPC: 4 cumulative IPC: 4 (Simulation time: 05 hr 10 min 37 sec)
Heartbeat CPU 2 instructions: 330000003 cycles: 82508181 heartbeat IPC: 4 cumulative IPC: 4 (Simulation time: 05 hr 10 min 37 sec)
Heartbeat CPU 6 instructions: 330000001 cycles: 82508181 heartbeat IPC: 4 cumulative IPC: 4 (Simulation time: 05 hr 10 min 37 sec)
Heartbeat CPU 7 instructions: 330000002 cycles: 82508302 heartbeat IPC: 4 cumulative IPC: 4 (Simulation time: 05 hr 10 min 37 sec)
Heartbeat CPU 3 instructions: 340000002 cycles: 85008105 heartbeat IPC: 4 cumulative IPC: 4 (Simulation time: 05 hr 19 min 39 sec)
Heartbeat CPU 2 instructions: 340000003 cycles: 85008181 heartbeat IPC: 4 cumulative IPC: 4 (Simulation time: 05 hr 19 min 39 sec)
Heartbeat CPU 6 instructions: 340000001 cycles: 85008181 heartbeat IPC: 4 cumulative IPC: 4 (Simulation time: 05 hr 19 min 39 sec)
Heartbeat CPU 7 instructions: 340000002 cycles: 85008302 heartbeat IPC: 4 cumulative IPC: 4 (Simulation time: 05 hr 19 min 39 sec)
Simulation finished CPU 7 instructions: 100000000 cycles: 25000000 cumulative IPC: 4 (Simulation time: 05 hr 20 min 03 sec)
Simulation finished CPU 6 instructions: 100000000 cycles: 25000000 cumulative IPC: 4 (Simulation time: 05 hr 20 min 03 sec)
Simulation finished CPU 3 instructions: 100000000 cycles: 25000000 cumulative IPC: 4 (Simulation time: 05 hr 20 min 03 sec)
Simulation finished CPU 2 instructions: 100000000 cycles: 25000000 cumulative IPC: 4 (Simulation time: 05 hr 20 min 03 sec)
Heartbeat CPU 5 instructions: 210000031 cycles: 85191042 heartbeat IPC: 1.958 cumulative IPC: 1.967 (Simulation time: 05 hr 20 min 19 sec)
Heartbeat CPU 1 instructions: 210000031 cycles: 85191042 heartbeat IPC: 1.958 cumulative IPC: 1.943 (Simulation time: 05 hr 20 min 19 sec)
Heartbeat CPU 3 instructions: 350000002 cycles: 87508105 heartbeat IPC: 4 cumulative IPC: 4 (Simulation time: 05 hr 28 min 53 sec)
Heartbeat CPU 2 instructions: 350000003 cycles: 87508181 heartbeat IPC: 4 cumulative IPC: 4 (Simulation time: 05 hr 28 min 53 sec)
Heartbeat CPU 6 instructions: 350000001 cycles: 87508181 heartbeat IPC: 4 cumulative IPC: 4 (Simulation time: 05 hr 28 min 53 sec)
Heartbeat CPU 7 instructions: 350000002 cycles: 87508302 heartbeat IPC: 4 cumulative IPC: 4 (Simulation time: 05 hr 28 min 53 sec)
Heartbeat CPU 3 instructions: 360000002 cycles: 90008105 heartbeat IPC: 4 cumulative IPC: 4 (Simulation time: 05 hr 38 min 16 sec)
Heartbeat CPU 2 instructions: 360000003 cycles: 90008181 heartbeat IPC: 4 cumulative IPC: 4 (Simulation time: 05 hr 38 min 16 sec)
Heartbeat CPU 6 instructions: 360000001 cycles: 90008181 heartbeat IPC: 4 cumulative IPC: 4 (Simulation time: 05 hr 38 min 16 sec)
Heartbeat CPU 7 instructions: 360000002 cycles: 90008302 heartbeat IPC: 4 cumulative IPC: 4 (Simulation time: 05 hr 38 min 16 sec)
Heartbeat CPU 1 instructions: 220000031 cycles: 90355817 heartbeat IPC: 1.936 cumulative IPC: 1.942 (Simulation time: 05 hr 39 min 37 sec)
Heartbeat CPU 5 instructions: 220000031 cycles: 90355884 heartbeat IPC: 1.936 cumulative IPC: 1.961 (Simulation time: 05 hr 39 min 37 sec)
Heartbeat CPU 3 instructions: 370000002 cycles: 92508105 heartbeat IPC: 4 cumulative IPC: 4 (Simulation time: 05 hr 47 min 34 sec)
Heartbeat CPU 2 instructions: 370000003 cycles: 92508181 heartbeat IPC: 4 cumulative IPC: 4 (Simulation time: 05 hr 47 min 34 sec)
Heartbeat CPU 6 instructions: 370000001 cycles: 92508181 heartbeat IPC: 4 cumulative IPC: 4 (Simulation time: 05 hr 47 min 34 sec)
Heartbeat CPU 7 instructions: 370000002 cycles: 92508302 heartbeat IPC: 4 cumulative IPC: 4 (Simulation time: 05 hr 47 min 35 sec)
Heartbeat CPU 3 instructions: 380000002 cycles: 95008105 heartbeat IPC: 4 cumulative IPC: 4 (Simulation time: 05 hr 56 min 59 sec)
Heartbeat CPU 2 instructions: 380000003 cycles: 95008181 heartbeat IPC: 4 cumulative IPC: 4 (Simulation time: 05 hr 56 min 59 sec)
Heartbeat CPU 6 instructions: 380000001 cycles: 95008181 heartbeat IPC: 4 cumulative IPC: 4 (Simulation time: 05 hr 56 min 59 sec)
Heartbeat CPU 7 instructions: 380000002 cycles: 95008302 heartbeat IPC: 4 cumulative IPC: 4 (Simulation time: 05 hr 56 min 59 sec)
Heartbeat CPU 1 instructions: 230000032 cycles: 95386991 heartbeat IPC: 1.988 cumulative IPC: 1.948 (Simulation time: 05 hr 58 min 25 sec)
Heartbeat CPU 5 instructions: 230000034 cycles: 95387014 heartbeat IPC: 1.988 cumulative IPC: 1.965 (Simulation time: 05 hr 58 min 25 sec)
Heartbeat CPU 3 instructions: 390000002 cycles: 97508105 heartbeat IPC: 4 cumulative IPC: 4 (Simulation time: 06 hr 06 min 23 sec)
Heartbeat CPU 2 instructions: 390000003 cycles: 97508181 heartbeat IPC: 4 cumulative IPC: 4 (Simulation time: 06 hr 06 min 23 sec)
Heartbeat CPU 6 instructions: 390000001 cycles: 97508181 heartbeat IPC: 4 cumulative IPC: 4 (Simulation time: 06 hr 06 min 23 sec)
Heartbeat CPU 7 instructions: 390000002 cycles: 97508302 heartbeat IPC: 4 cumulative IPC: 4 (Simulation time: 06 hr 06 min 23 sec)
Heartbeat CPU 0 instructions: 70000003 cycles: 99246855 heartbeat IPC: 0.5155 cumulative IPC: 0.5111 (Simulation time: 06 hr 12 min 51 sec)
Heartbeat CPU 4 instructions: 70000007 cycles: 99246965 heartbeat IPC: 0.5155 cumulative IPC: 0.5111 (Simulation time: 06 hr 12 min 51 sec)
Heartbeat CPU 3 instructions: 400000002 cycles: 100008105 heartbeat IPC: 4 cumulative IPC: 4 (Simulation time: 06 hr 15 min 39 sec)
Heartbeat CPU 2 instructions: 400000003 cycles: 100008181 heartbeat IPC: 4 cumulative IPC: 4 (Simulation time: 06 hr 15 min 39 sec)
Heartbeat CPU 6 instructions: 400000001 cycles: 100008181 heartbeat IPC: 4 cumulative IPC: 4 (Simulation time: 06 hr 15 min 39 sec)
Heartbeat CPU 7 instructions: 400000002 cycles: 100008302 heartbeat IPC: 4 cumulative IPC: 4 (Simulation time: 06 hr 15 min 39 sec)
Heartbeat CPU 5 instructions: 240000035 cycles: 100525129 heartbeat IPC: 1.946 cumulative IPC: 1.963 (Simulation time: 06 hr 17 min 37 sec)
Heartbeat CPU 1 instructions: 240000033 cycles: 100525129 heartbeat IPC: 1.946 cumulative IPC: 1.948 (Simulation time: 06 hr 17 min 37 sec)
Heartbeat CPU 3 instructions: 410000002 cycles: 102508105 heartbeat IPC: 4 cumulative IPC: 4 (Simulation time: 06 hr 24 min 59 sec)
Heartbeat CPU 2 instructions: 410000003 cycles: 102508181 heartbeat IPC: 4 cumulative IPC: 4 (Simulation time: 06 hr 24 min 59 sec)
Heartbeat CPU 6 instructions: 410000001 cycles: 102508181 heartbeat IPC: 4 cumulative IPC: 4 (Simulation time: 06 hr 24 min 59 sec)
Heartbeat CPU 7 instructions: 410000002 cycles: 102508302 heartbeat IPC: 4 cumulative IPC: 4 (Simulation time: 06 hr 24 min 59 sec)
Heartbeat CPU 3 instructions: 420000002 cycles: 105008105 heartbeat IPC: 4 cumulative IPC: 4 (Simulation time: 06 hr 34 min 37 sec)
Heartbeat CPU 2 instructions: 420000003 cycles: 105008181 heartbeat IPC: 4 cumulative IPC: 4 (Simulation time: 06 hr 34 min 37 sec)
Heartbeat CPU 6 instructions: 420000001 cycles: 105008181 heartbeat IPC: 4 cumulative IPC: 4 (Simulation time: 06 hr 34 min 37 sec)
Heartbeat CPU 7 instructions: 420000002 cycles: 105008302 heartbeat IPC: 4 cumulative IPC: 4 (Simulation time: 06 hr 34 min 37 sec)
Heartbeat CPU 1 instructions: 250000035 cycles: 105732333 heartbeat IPC: 1.92 cumulative IPC: 1.945 (Simulation time: 06 hr 37 min 16 sec)
Heartbeat CPU 5 instructions: 250000035 cycles: 105732607 heartbeat IPC: 1.92 cumulative IPC: 1.958 (Simulation time: 06 hr 37 min 16 sec)
Heartbeat CPU 3 instructions: 430000002 cycles: 107508105 heartbeat IPC: 4 cumulative IPC: 4 (Simulation time: 06 hr 43 min 44 sec)
Heartbeat CPU 2 instructions: 430000003 cycles: 107508181 heartbeat IPC: 4 cumulative IPC: 4 (Simulation time: 06 hr 43 min 44 sec)
Heartbeat CPU 6 instructions: 430000001 cycles: 107508181 heartbeat IPC: 4 cumulative IPC: 4 (Simulation time: 06 hr 43 min 44 sec)
Heartbeat CPU 7 instructions: 430000002 cycles: 107508302 heartbeat IPC: 4 cumulative IPC: 4 (Simulation time: 06 hr 43 min 44 sec)
Heartbeat CPU 3 instructions: 440000002 cycles: 110008105 heartbeat IPC: 4 cumulative IPC: 4 (Simulation time: 06 hr 52 min 37 sec)
Heartbeat CPU 2 instructions: 440000003 cycles: 110008181 heartbeat IPC: 4 cumulative IPC: 4 (Simulation time: 06 hr 52 min 37 sec)
Heartbeat CPU 6 instructions: 440000001 cycles: 110008181 heartbeat IPC: 4 cumulative IPC: 4 (Simulation time: 06 hr 52 min 37 sec)
Heartbeat CPU 7 instructions: 440000002 cycles: 110008302 heartbeat IPC: 4 cumulative IPC: 4 (Simulation time: 06 hr 52 min 37 sec)
Heartbeat CPU 1 instructions: 260000038 cycles: 110939314 heartbeat IPC: 1.92 cumulative IPC: 1.942 (Simulation time: 06 hr 56 min 05 sec)
Heartbeat CPU 5 instructions: 260000038 cycles: 110939402 heartbeat IPC: 1.921 cumulative IPC: 1.954 (Simulation time: 06 hr 56 min 05 sec)
Simulation finished CPU 5 instructions: 100000001 cycles: 51222155 cumulative IPC: 1.952 (Simulation time: 06 hr 57 min 35 sec)
Simulation finished CPU 1 instructions: 100000001 cycles: 51534843 cumulative IPC: 1.94 (Simulation time: 06 hr 58 min 45 sec)
Heartbeat CPU 3 instructions: 450000002 cycles: 112508105 heartbeat IPC: 4 cumulative IPC: 4 (Simulation time: 07 hr 01 min 56 sec)
Heartbeat CPU 2 instructions: 450000003 cycles: 112508181 heartbeat IPC: 4 cumulative IPC: 4 (Simulation time: 07 hr 01 min 56 sec)
Heartbeat CPU 6 instructions: 450000001 cycles: 112508181 heartbeat IPC: 4 cumulative IPC: 4 (Simulation time: 07 hr 01 min 56 sec)
Heartbeat CPU 7 instructions: 450000002 cycles: 112508302 heartbeat IPC: 4 cumulative IPC: 4 (Simulation time: 07 hr 01 min 56 sec)
Heartbeat CPU 3 instructions: 460000002 cycles: 115008105 heartbeat IPC: 4 cumulative IPC: 4 (Simulation time: 07 hr 11 min 17 sec)
Heartbeat CPU 2 instructions: 460000003 cycles: 115008181 heartbeat IPC: 4 cumulative IPC: 4 (Simulation time: 07 hr 11 min 17 sec)
Heartbeat CPU 6 instructions: 460000001 cycles: 115008181 heartbeat IPC: 4 cumulative IPC: 4 (Simulation time: 07 hr 11 min 17 sec)
Heartbeat CPU 7 instructions: 460000002 cycles: 115008302 heartbeat IPC: 4 cumulative IPC: 4 (Simulation time: 07 hr 11 min 17 sec)
Heartbeat CPU 1 instructions: 270000040 cycles: 116200049 heartbeat IPC: 1.901 cumulative IPC: 1.938 (Simulation time: 07 hr 15 min 48 sec)
Heartbeat CPU 5 instructions: 270000040 cycles: 116200054 heartbeat IPC: 1.901 cumulative IPC: 1.949 (Simulation time: 07 hr 15 min 48 sec)
Heartbeat CPU 3 instructions: 470000002 cycles: 117508105 heartbeat IPC: 4 cumulative IPC: 4 (Simulation time: 07 hr 20 min 41 sec)
Heartbeat CPU 2 instructions: 470000003 cycles: 117508181 heartbeat IPC: 4 cumulative IPC: 4 (Simulation time: 07 hr 20 min 41 sec)
Heartbeat CPU 6 instructions: 470000001 cycles: 117508181 heartbeat IPC: 4 cumulative IPC: 4 (Simulation time: 07 hr 20 min 41 sec)
Heartbeat CPU 7 instructions: 470000002 cycles: 117508302 heartbeat IPC: 4 cumulative IPC: 4 (Simulation time: 07 hr 20 min 41 sec)
Heartbeat CPU 0 instructions: 80000004 cycles: 118077389 heartbeat IPC: 0.5311 cumulative IPC: 0.5176 (Simulation time: 07 hr 22 min 42 sec)
Heartbeat CPU 4 instructions: 80000007 cycles: 118077446 heartbeat IPC: 0.5311 cumulative IPC: 0.5176 (Simulation time: 07 hr 22 min 42 sec)
Heartbeat CPU 3 instructions: 480000002 cycles: 120008105 heartbeat IPC: 4 cumulative IPC: 4 (Simulation time: 07 hr 29 min 49 sec)
Heartbeat CPU 2 instructions: 480000003 cycles: 120008181 heartbeat IPC: 4 cumulative IPC: 4 (Simulation time: 07 hr 29 min 49 sec)
Heartbeat CPU 6 instructions: 480000001 cycles: 120008181 heartbeat IPC: 4 cumulative IPC: 4 (Simulation time: 07 hr 29 min 49 sec)
Heartbeat CPU 7 instructions: 480000002 cycles: 120008302 heartbeat IPC: 4 cumulative IPC: 4 (Simulation time: 07 hr 29 min 49 sec)
Heartbeat CPU 3 instructions: 490000002 cycles: 122508105 heartbeat IPC: 4 cumulative IPC: 4 (Simulation time: 07 hr 38 min 51 sec)
Heartbeat CPU 2 instructions: 490000003 cycles: 122508181 heartbeat IPC: 4 cumulative IPC: 4 (Simulation time: 07 hr 38 min 51 sec)
Heartbeat CPU 6 instructions: 490000001 cycles: 122508181 heartbeat IPC: 4 cumulative IPC: 4 (Simulation time: 07 hr 38 min 51 sec)
Heartbeat CPU 7 instructions: 490000002 cycles: 122508302 heartbeat IPC: 4 cumulative IPC: 4 (Simulation time: 07 hr 38 min 51 sec)
Heartbeat CPU 1 instructions: 280000042 cycles: 123175610 heartbeat IPC: 1.434 cumulative IPC: 1.883 (Simulation time: 07 hr 41 min 17 sec)
Heartbeat CPU 5 instructions: 280000042 cycles: 123175641 heartbeat IPC: 1.434 cumulative IPC: 1.892 (Simulation time: 07 hr 41 min 17 sec)
Heartbeat CPU 3 instructions: 500000002 cycles: 125008105 heartbeat IPC: 4 cumulative IPC: 4 (Simulation time: 07 hr 47 min 51 sec)
Heartbeat CPU 2 instructions: 500000003 cycles: 125008181 heartbeat IPC: 4 cumulative IPC: 4 (Simulation time: 07 hr 47 min 51 sec)
Heartbeat CPU 6 instructions: 500000001 cycles: 125008181 heartbeat IPC: 4 cumulative IPC: 4 (Simulation time: 07 hr 47 min 51 sec)
Heartbeat CPU 7 instructions: 500000002 cycles: 125008302 heartbeat IPC: 4 cumulative IPC: 4 (Simulation time: 07 hr 47 min 51 sec)
Heartbeat CPU 3 instructions: 510000002 cycles: 127508105 heartbeat IPC: 4 cumulative IPC: 4 (Simulation time: 07 hr 56 min 43 sec)
Heartbeat CPU 2 instructions: 510000003 cycles: 127508181 heartbeat IPC: 4 cumulative IPC: 4 (Simulation time: 07 hr 56 min 43 sec)
Heartbeat CPU 6 instructions: 510000001 cycles: 127508181 heartbeat IPC: 4 cumulative IPC: 4 (Simulation time: 07 hr 56 min 43 sec)
Heartbeat CPU 7 instructions: 510000002 cycles: 127508302 heartbeat IPC: 4 cumulative IPC: 4 (Simulation time: 07 hr 56 min 43 sec)
Heartbeat CPU 3 instructions: 520000002 cycles: 130008105 heartbeat IPC: 4 cumulative IPC: 4 (Simulation time: 08 hr 05 min 55 sec)
Heartbeat CPU 2 instructions: 520000003 cycles: 130008181 heartbeat IPC: 4 cumulative IPC: 4 (Simulation time: 08 hr 05 min 55 sec)
Heartbeat CPU 6 instructions: 520000001 cycles: 130008181 heartbeat IPC: 4 cumulative IPC: 4 (Simulation time: 08 hr 05 min 55 sec)
Heartbeat CPU 7 instructions: 520000002 cycles: 130008302 heartbeat IPC: 4 cumulative IPC: 4 (Simulation time: 08 hr 05 min 55 sec)
Heartbeat CPU 1 instructions: 290000042 cycles: 130652563 heartbeat IPC: 1.337 cumulative IPC: 1.825 (Simulation time: 08 hr 08 min 19 sec)
Heartbeat CPU 5 instructions: 290000042 cycles: 130652629 heartbeat IPC: 1.337 cumulative IPC: 1.833 (Simulation time: 08 hr 08 min 19 sec)
Heartbeat CPU 3 instructions: 530000002 cycles: 132508105 heartbeat IPC: 4 cumulative IPC: 4 (Simulation time: 08 hr 14 min 59 sec)
Heartbeat CPU 2 instructions: 530000003 cycles: 132508181 heartbeat IPC: 4 cumulative IPC: 4 (Simulation time: 08 hr 14 min 59 sec)
Heartbeat CPU 6 instructions: 530000001 cycles: 132508181 heartbeat IPC: 4 cumulative IPC: 4 (Simulation time: 08 hr 14 min 59 sec)
Heartbeat CPU 7 instructions: 530000002 cycles: 132508302 heartbeat IPC: 4 cumulative IPC: 4 (Simulation time: 08 hr 14 min 59 sec)
*** Reached end of trace: (7, "/home/harshraj/COALESCE-Hashed-Perceptron-Cache-Replacement-Policy/simulator/traces/barnes_4t3.champsimtrace")
*** Reached end of trace: (3, "/home/harshraj/COALESCE-Hashed-Perceptron-Cache-Replacement-Policy/simulator/traces/barnes_4t3.champsimtrace")
Heartbeat CPU 2 instructions: 540000003 cycles: 135008181 heartbeat IPC: 4 cumulative IPC: 4 (Simulation time: 08 hr 24 min 27 sec)
Heartbeat CPU 6 instructions: 540000001 cycles: 135008181 heartbeat IPC: 4 cumulative IPC: 4 (Simulation time: 08 hr 24 min 27 sec)
Heartbeat CPU 3 instructions: 540000002 cycles: 135015994 heartbeat IPC: 3.987 cumulative IPC: 4 (Simulation time: 08 hr 24 min 29 sec)
Heartbeat CPU 7 instructions: 540000002 cycles: 135016004 heartbeat IPC: 3.988 cumulative IPC: 4 (Simulation time: 08 hr 24 min 29 sec)
Heartbeat CPU 1 instructions: 300000043 cycles: 136134878 heartbeat IPC: 1.824 cumulative IPC: 1.825 (Simulation time: 08 hr 28 min 40 sec)
Heartbeat CPU 5 instructions: 300000043 cycles: 136134896 heartbeat IPC: 1.824 cumulative IPC: 1.833 (Simulation time: 08 hr 28 min 40 sec)
Heartbeat CPU 2 instructions: 550000003 cycles: 137508181 heartbeat IPC: 4 cumulative IPC: 4 (Simulation time: 08 hr 33 min 29 sec)
Heartbeat CPU 6 instructions: 550000001 cycles: 137508181 heartbeat IPC: 4 cumulative IPC: 4 (Simulation time: 08 hr 33 min 29 sec)
Heartbeat CPU 3 instructions: 550000002 cycles: 137515994 heartbeat IPC: 4 cumulative IPC: 4 (Simulation time: 08 hr 33 min 31 sec)
Heartbeat CPU 7 instructions: 550000002 cycles: 137516004 heartbeat IPC: 4 cumulative IPC: 4 (Simulation time: 08 hr 33 min 31 sec)
Heartbeat CPU 0 instructions: 90000005 cycles: 137839217 heartbeat IPC: 0.506 cumulative IPC: 0.5147 (Simulation time: 08 hr 34 min 45 sec)
Heartbeat CPU 4 instructions: 90000010 cycles: 137839219 heartbeat IPC: 0.506 cumulative IPC: 0.5147 (Simulation time: 08 hr 34 min 45 sec)
*** Reached end of trace: (6, "/home/harshraj/COALESCE-Hashed-Perceptron-Cache-Replacement-Policy/simulator/traces/barnes_4t2.champsimtrace")
*** Reached end of trace: (2, "/home/harshraj/COALESCE-Hashed-Perceptron-Cache-Replacement-Policy/simulator/traces/barnes_4t2.champsimtrace")
Heartbeat CPU 6 instructions: 560000003 cycles: 140015259 heartbeat IPC: 3.989 cumulative IPC: 4 (Simulation time: 08 hr 42 min 47 sec)
Heartbeat CPU 2 instructions: 560000005 cycles: 140015274 heartbeat IPC: 3.989 cumulative IPC: 4 (Simulation time: 08 hr 42 min 47 sec)
Heartbeat CPU 3 instructions: 560000002 cycles: 140015994 heartbeat IPC: 4 cumulative IPC: 4 (Simulation time: 08 hr 42 min 47 sec)
Heartbeat CPU 7 instructions: 560000002 cycles: 140016004 heartbeat IPC: 4 cumulative IPC: 4 (Simulation time: 08 hr 42 min 47 sec)
Heartbeat CPU 1 instructions: 310000043 cycles: 141334940 heartbeat IPC: 1.923 cumulative IPC: 1.831 (Simulation time: 08 hr 47 min 41 sec)
Heartbeat CPU 5 instructions: 310000043 cycles: 141334951 heartbeat IPC: 1.923 cumulative IPC: 1.838 (Simulation time: 08 hr 47 min 41 sec)
Heartbeat CPU 6 instructions: 570000003 cycles: 142515259 heartbeat IPC: 4 cumulative IPC: 4 (Simulation time: 08 hr 52 min 01 sec)
Heartbeat CPU 2 instructions: 570000005 cycles: 142515274 heartbeat IPC: 4 cumulative IPC: 4 (Simulation time: 08 hr 52 min 01 sec)
Heartbeat CPU 3 instructions: 570000002 cycles: 142515994 heartbeat IPC: 4 cumulative IPC: 4 (Simulation time: 08 hr 52 min 01 sec)
Heartbeat CPU 7 instructions: 570000002 cycles: 142516004 heartbeat IPC: 4 cumulative IPC: 4 (Simulation time: 08 hr 52 min 01 sec)
Heartbeat CPU 6 instructions: 580000003 cycles: 145015259 heartbeat IPC: 4 cumulative IPC: 4 (Simulation time: 09 hr 01 min 15 sec)
Heartbeat CPU 2 instructions: 580000005 cycles: 145015274 heartbeat IPC: 4 cumulative IPC: 4 (Simulation time: 09 hr 01 min 15 sec)
Heartbeat CPU 3 instructions: 580000002 cycles: 145015994 heartbeat IPC: 4 cumulative IPC: 4 (Simulation time: 09 hr 01 min 15 sec)
Heartbeat CPU 7 instructions: 580000002 cycles: 145016004 heartbeat IPC: 4 cumulative IPC: 4 (Simulation time: 09 hr 01 min 15 sec)
Heartbeat CPU 1 instructions: 320000046 cycles: 146761616 heartbeat IPC: 1.843 cumulative IPC: 1.832 (Simulation time: 09 hr 08 min 06 sec)
Heartbeat CPU 5 instructions: 320000046 cycles: 146761862 heartbeat IPC: 1.843 cumulative IPC: 1.839 (Simulation time: 09 hr 08 min 06 sec)
Heartbeat CPU 6 instructions: 590000003 cycles: 147515259 heartbeat IPC: 4 cumulative IPC: 4 (Simulation time: 09 hr 11 min 00 sec)
Heartbeat CPU 2 instructions: 590000005 cycles: 147515274 heartbeat IPC: 4 cumulative IPC: 4 (Simulation time: 09 hr 11 min 00 sec)
Heartbeat CPU 3 instructions: 590000002 cycles: 147515994 heartbeat IPC: 4 cumulative IPC: 4 (Simulation time: 09 hr 11 min 01 sec)
Heartbeat CPU 7 instructions: 590000002 cycles: 147516004 heartbeat IPC: 4 cumulative IPC: 4 (Simulation time: 09 hr 11 min 01 sec)
Heartbeat CPU 6 instructions: 600000003 cycles: 150015259 heartbeat IPC: 4 cumulative IPC: 4 (Simulation time: 09 hr 20 min 15 sec)
Heartbeat CPU 2 instructions: 600000005 cycles: 150015274 heartbeat IPC: 4 cumulative IPC: 4 (Simulation time: 09 hr 20 min 15 sec)
Heartbeat CPU 3 instructions: 600000002 cycles: 150015994 heartbeat IPC: 4 cumulative IPC: 4 (Simulation time: 09 hr 20 min 15 sec)
Heartbeat CPU 7 instructions: 600000002 cycles: 150016004 heartbeat IPC: 4 cumulative IPC: 4 (Simulation time: 09 hr 20 min 15 sec)
Heartbeat CPU 1 instructions: 330000048 cycles: 151970423 heartbeat IPC: 1.92 cumulative IPC: 1.837 (Simulation time: 09 hr 27 min 17 sec)
Heartbeat CPU 5 instructions: 330000048 cycles: 151970718 heartbeat IPC: 1.92 cumulative IPC: 1.843 (Simulation time: 09 hr 27 min 17 sec)
Heartbeat CPU 6 instructions: 610000003 cycles: 152515259 heartbeat IPC: 4 cumulative IPC: 4 (Simulation time: 09 hr 29 min 18 sec)
Heartbeat CPU 2 instructions: 610000005 cycles: 152515274 heartbeat IPC: 4 cumulative IPC: 4 (Simulation time: 09 hr 29 min 18 sec)
Heartbeat CPU 3 instructions: 610000002 cycles: 152515994 heartbeat IPC: 4 cumulative IPC: 4 (Simulation time: 09 hr 29 min 18 sec)
Heartbeat CPU 7 instructions: 610000002 cycles: 152516004 heartbeat IPC: 4 cumulative IPC: 4 (Simulation time: 09 hr 29 min 18 sec)
Heartbeat CPU 6 instructions: 620000003 cycles: 155015259 heartbeat IPC: 4 cumulative IPC: 4 (Simulation time: 09 hr 38 min 25 sec)
Heartbeat CPU 2 instructions: 620000005 cycles: 155015274 heartbeat IPC: 4 cumulative IPC: 4 (Simulation time: 09 hr 38 min 25 sec)
Heartbeat CPU 3 instructions: 620000002 cycles: 155015994 heartbeat IPC: 4 cumulative IPC: 4 (Simulation time: 09 hr 38 min 25 sec)
Heartbeat CPU 7 instructions: 620000002 cycles: 155016004 heartbeat IPC: 4 cumulative IPC: 4 (Simulation time: 09 hr 38 min 25 sec)
Heartbeat CPU 0 instructions: 100000009 cycles: 156535480 heartbeat IPC: 0.5349 cumulative IPC: 0.5186 (Simulation time: 09 hr 44 min 09 sec)
Heartbeat CPU 4 instructions: 100000014 cycles: 156535482 heartbeat IPC: 0.5349 cumulative IPC: 0.5186 (Simulation time: 09 hr 44 min 09 sec)
Heartbeat CPU 1 instructions: 340000051 cycles: 156981635 heartbeat IPC: 1.996 cumulative IPC: 1.845 (Simulation time: 09 hr 45 min 54 sec)
Heartbeat CPU 5 instructions: 340000051 cycles: 156981726 heartbeat IPC: 1.996 cumulative IPC: 1.851 (Simulation time: 09 hr 45 min 54 sec)
Heartbeat CPU 6 instructions: 630000003 cycles: 157515259 heartbeat IPC: 4 cumulative IPC: 4 (Simulation time: 09 hr 48 min 00 sec)
Heartbeat CPU 2 instructions: 630000005 cycles: 157515274 heartbeat IPC: 4 cumulative IPC: 4 (Simulation time: 09 hr 48 min 00 sec)
Heartbeat CPU 3 instructions: 630000002 cycles: 157515994 heartbeat IPC: 4 cumulative IPC: 4 (Simulation time: 09 hr 48 min 00 sec)
Heartbeat CPU 7 instructions: 630000002 cycles: 157516004 heartbeat IPC: 4 cumulative IPC: 4 (Simulation time: 09 hr 48 min 00 sec)
Heartbeat CPU 6 instructions: 640000003 cycles: 160015259 heartbeat IPC: 4 cumulative IPC: 4 (Simulation time: 09 hr 57 min 53 sec)
Heartbeat CPU 2 instructions: 640000005 cycles: 160015274 heartbeat IPC: 4 cumulative IPC: 4 (Simulation time: 09 hr 57 min 53 sec)
Heartbeat CPU 3 instructions: 640000002 cycles: 160015994 heartbeat IPC: 4 cumulative IPC: 4 (Simulation time: 09 hr 57 min 53 sec)
Heartbeat CPU 7 instructions: 640000002 cycles: 160016004 heartbeat IPC: 4 cumulative IPC: 4 (Simulation time: 09 hr 57 min 53 sec)
Heartbeat CPU 1 instructions: 350000052 cycles: 161554889 heartbeat IPC: 2.187 cumulative IPC: 1.86 (Simulation time: 10 hr 04 min 02 sec)
Heartbeat CPU 5 instructions: 350000053 cycles: 161554898 heartbeat IPC: 2.187 cumulative IPC: 1.866 (Simulation time: 10 hr 04 min 02 sec)
Heartbeat CPU 6 instructions: 650000003 cycles: 162515259 heartbeat IPC: 4 cumulative IPC: 4 (Simulation time: 10 hr 07 min 45 sec)
Heartbeat CPU 2 instructions: 650000005 cycles: 162515274 heartbeat IPC: 4 cumulative IPC: 4 (Simulation time: 10 hr 07 min 45 sec)
Heartbeat CPU 3 instructions: 650000002 cycles: 162515994 heartbeat IPC: 4 cumulative IPC: 4 (Simulation time: 10 hr 07 min 45 sec)
Heartbeat CPU 7 instructions: 650000002 cycles: 162516004 heartbeat IPC: 4 cumulative IPC: 4 (Simulation time: 10 hr 07 min 45 sec)
Heartbeat CPU 6 instructions: 660000003 cycles: 165015259 heartbeat IPC: 4 cumulative IPC: 4 (Simulation time: 10 hr 16 min 46 sec)
Heartbeat CPU 2 instructions: 660000005 cycles: 165015274 heartbeat IPC: 4 cumulative IPC: 4 (Simulation time: 10 hr 16 min 46 sec)
Heartbeat CPU 3 instructions: 660000002 cycles: 165015994 heartbeat IPC: 4 cumulative IPC: 4 (Simulation time: 10 hr 16 min 46 sec)
Heartbeat CPU 7 instructions: 660000002 cycles: 165016004 heartbeat IPC: 4 cumulative IPC: 4 (Simulation time: 10 hr 16 min 46 sec)
Heartbeat CPU 1 instructions: 360000055 cycles: 166706717 heartbeat IPC: 1.941 cumulative IPC: 1.864 (Simulation time: 10 hr 23 min 01 sec)
Heartbeat CPU 5 instructions: 360000055 cycles: 166706745 heartbeat IPC: 1.941 cumulative IPC: 1.87 (Simulation time: 10 hr 23 min 01 sec)
Heartbeat CPU 6 instructions: 670000003 cycles: 167515259 heartbeat IPC: 4 cumulative IPC: 4 (Simulation time: 10 hr 26 min 03 sec)
Heartbeat CPU 2 instructions: 670000005 cycles: 167515274 heartbeat IPC: 4 cumulative IPC: 4 (Simulation time: 10 hr 26 min 03 sec)
Heartbeat CPU 3 instructions: 670000002 cycles: 167515994 heartbeat IPC: 4 cumulative IPC: 4 (Simulation time: 10 hr 26 min 04 sec)
Heartbeat CPU 7 instructions: 670000002 cycles: 167516004 heartbeat IPC: 4 cumulative IPC: 4 (Simulation time: 10 hr 26 min 04 sec)
Heartbeat CPU 6 instructions: 680000003 cycles: 170015259 heartbeat IPC: 4 cumulative IPC: 4 (Simulation time: 10 hr 34 min 58 sec)
Heartbeat CPU 2 instructions: 680000005 cycles: 170015274 heartbeat IPC: 4 cumulative IPC: 4 (Simulation time: 10 hr 34 min 58 sec)
Heartbeat CPU 3 instructions: 680000002 cycles: 170015994 heartbeat IPC: 4 cumulative IPC: 4 (Simulation time: 10 hr 34 min 58 sec)
Heartbeat CPU 7 instructions: 680000002 cycles: 170016004 heartbeat IPC: 4 cumulative IPC: 4 (Simulation time: 10 hr 34 min 58 sec)
Heartbeat CPU 1 instructions: 370000056 cycles: 171540504 heartbeat IPC: 2.069 cumulative IPC: 1.873 (Simulation time: 10 hr 40 min 34 sec)
Heartbeat CPU 5 instructions: 370000056 cycles: 171540518 heartbeat IPC: 2.069 cumulative IPC: 1.878 (Simulation time: 10 hr 40 min 34 sec)
Heartbeat CPU 6 instructions: 690000003 cycles: 172515259 heartbeat IPC: 4 cumulative IPC: 4 (Simulation time: 10 hr 44 min 08 sec)
Heartbeat CPU 2 instructions: 690000005 cycles: 172515274 heartbeat IPC: 4 cumulative IPC: 4 (Simulation time: 10 hr 44 min 08 sec)
Heartbeat CPU 3 instructions: 690000002 cycles: 172515994 heartbeat IPC: 4 cumulative IPC: 4 (Simulation time: 10 hr 44 min 09 sec)
Heartbeat CPU 7 instructions: 690000002 cycles: 172516004 heartbeat IPC: 4 cumulative IPC: 4 (Simulation time: 10 hr 44 min 09 sec)
Heartbeat CPU 0 instructions: 110000010 cycles: 173862697 heartbeat IPC: 0.5771 cumulative IPC: 0.5275 (Simulation time: 10 hr 49 min 05 sec)
Heartbeat CPU 4 instructions: 110000014 cycles: 173862717 heartbeat IPC: 0.5771 cumulative IPC: 0.5275 (Simulation time: 10 hr 49 min 05 sec)
Heartbeat CPU 6 instructions: 700000003 cycles: 175015259 heartbeat IPC: 4 cumulative IPC: 4 (Simulation time: 10 hr 53 min 17 sec)
Heartbeat CPU 2 instructions: 700000005 cycles: 175015274 heartbeat IPC: 4 cumulative IPC: 4 (Simulation time: 10 hr 53 min 17 sec)
Heartbeat CPU 3 instructions: 700000002 cycles: 175015994 heartbeat IPC: 4 cumulative IPC: 4 (Simulation time: 10 hr 53 min 18 sec)
Heartbeat CPU 7 instructions: 700000002 cycles: 175016004 heartbeat IPC: 4 cumulative IPC: 4 (Simulation time: 10 hr 53 min 18 sec)
Heartbeat CPU 1 instructions: 380000058 cycles: 176706026 heartbeat IPC: 1.936 cumulative IPC: 1.876 (Simulation time: 10 hr 59 min 31 sec)
Heartbeat CPU 5 instructions: 380000058 cycles: 176706516 heartbeat IPC: 1.936 cumulative IPC: 1.881 (Simulation time: 10 hr 59 min 31 sec)
Heartbeat CPU 6 instructions: 710000003 cycles: 177515259 heartbeat IPC: 4 cumulative IPC: 4 (Simulation time: 11 hr 02 min 28 sec)
Heartbeat CPU 2 instructions: 710000005 cycles: 177515274 heartbeat IPC: 4 cumulative IPC: 4 (Simulation time: 11 hr 02 min 28 sec)
Heartbeat CPU 3 instructions: 710000002 cycles: 177515994 heartbeat IPC: 4 cumulative IPC: 4 (Simulation time: 11 hr 02 min 28 sec)
Heartbeat CPU 7 instructions: 710000002 cycles: 177516004 heartbeat IPC: 4 cumulative IPC: 4 (Simulation time: 11 hr 02 min 28 sec)
Heartbeat CPU 6 instructions: 720000003 cycles: 180015259 heartbeat IPC: 4 cumulative IPC: 4 (Simulation time: 11 hr 11 min 38 sec)
Heartbeat CPU 2 instructions: 720000005 cycles: 180015274 heartbeat IPC: 4 cumulative IPC: 4 (Simulation time: 11 hr 11 min 38 sec)
Heartbeat CPU 3 instructions: 720000002 cycles: 180015994 heartbeat IPC: 4 cumulative IPC: 4 (Simulation time: 11 hr 11 min 39 sec)
Heartbeat CPU 7 instructions: 720000002 cycles: 180016004 heartbeat IPC: 4 cumulative IPC: 4 (Simulation time: 11 hr 11 min 39 sec)
Heartbeat CPU 6 instructions: 730000003 cycles: 182515259 heartbeat IPC: 4 cumulative IPC: 4 (Simulation time: 11 hr 21 min 41 sec)
Heartbeat CPU 2 instructions: 730000005 cycles: 182515274 heartbeat IPC: 4 cumulative IPC: 4 (Simulation time: 11 hr 21 min 41 sec)
Heartbeat CPU 3 instructions: 730000002 cycles: 182515994 heartbeat IPC: 4 cumulative IPC: 4 (Simulation time: 11 hr 21 min 41 sec)
Heartbeat CPU 7 instructions: 730000002 cycles: 182516004 heartbeat IPC: 4 cumulative IPC: 4 (Simulation time: 11 hr 21 min 41 sec)
Heartbeat CPU 1 instructions: 390000061 cycles: 182575557 heartbeat IPC: 1.704 cumulative IPC: 1.868 (Simulation time: 11 hr 21 min 54 sec)
Heartbeat CPU 5 instructions: 390000061 cycles: 182575609 heartbeat IPC: 1.704 cumulative IPC: 1.873 (Simulation time: 11 hr 21 min 54 sec)
Heartbeat CPU 6 instructions: 740000003 cycles: 185015259 heartbeat IPC: 4 cumulative IPC: 4 (Simulation time: 11 hr 31 min 29 sec)
Heartbeat CPU 2 instructions: 740000005 cycles: 185015274 heartbeat IPC: 4 cumulative IPC: 4 (Simulation time: 11 hr 31 min 29 sec)
Heartbeat CPU 3 instructions: 740000002 cycles: 185015994 heartbeat IPC: 4 cumulative IPC: 4 (Simulation time: 11 hr 31 min 29 sec)
Heartbeat CPU 7 instructions: 740000002 cycles: 185016004 heartbeat IPC: 4 cumulative IPC: 4 (Simulation time: 11 hr 31 min 29 sec)
Heartbeat CPU 6 instructions: 750000003 cycles: 187515259 heartbeat IPC: 4 cumulative IPC: 4 (Simulation time: 11 hr 41 min 24 sec)
Heartbeat CPU 2 instructions: 750000005 cycles: 187515274 heartbeat IPC: 4 cumulative IPC: 4 (Simulation time: 11 hr 41 min 24 sec)
Heartbeat CPU 3 instructions: 750000002 cycles: 187515994 heartbeat IPC: 4 cumulative IPC: 4 (Simulation time: 11 hr 41 min 24 sec)
Heartbeat CPU 7 instructions: 750000002 cycles: 187516004 heartbeat IPC: 4 cumulative IPC: 4 (Simulation time: 11 hr 41 min 24 sec)
Heartbeat CPU 1 instructions: 400000063 cycles: 188816399 heartbeat IPC: 1.602 cumulative IPC: 1.855 (Simulation time: 11 hr 46 min 42 sec)
Heartbeat CPU 5 instructions: 400000063 cycles: 188816408 heartbeat IPC: 1.602 cumulative IPC: 1.859 (Simulation time: 11 hr 46 min 42 sec)
Heartbeat CPU 6 instructions: 760000003 cycles: 190015259 heartbeat IPC: 4 cumulative IPC: 4 (Simulation time: 11 hr 51 min 33 sec)
Heartbeat CPU 2 instructions: 760000005 cycles: 190015274 heartbeat IPC: 4 cumulative IPC: 4 (Simulation time: 11 hr 51 min 33 sec)
Heartbeat CPU 3 instructions: 760000002 cycles: 190015994 heartbeat IPC: 4 cumulative IPC: 4 (Simulation time: 11 hr 51 min 33 sec)
Heartbeat CPU 7 instructions: 760000002 cycles: 190016004 heartbeat IPC: 4 cumulative IPC: 4 (Simulation time: 11 hr 51 min 33 sec)
Heartbeat CPU 0 instructions: 120000010 cycles: 190633097 heartbeat IPC: 0.5963 cumulative IPC: 0.5363 (Simulation time: 11 hr 54 min 10 sec)
Heartbeat CPU 4 instructions: 120000015 cycles: 190633143 heartbeat IPC: 0.5963 cumulative IPC: 0.5363 (Simulation time: 11 hr 54 min 10 sec)
Heartbeat CPU 6 instructions: 770000003 cycles: 192515259 heartbeat IPC: 4 cumulative IPC: 4 (Simulation time: 12 hr 01 min 26 sec)
Heartbeat CPU 2 instructions: 770000005 cycles: 192515274 heartbeat IPC: 4 cumulative IPC: 4 (Simulation time: 12 hr 01 min 26 sec)
Heartbeat CPU 3 instructions: 770000002 cycles: 192515994 heartbeat IPC: 4 cumulative IPC: 4 (Simulation time: 12 hr 01 min 26 sec)
Heartbeat CPU 7 instructions: 770000002 cycles: 192516004 heartbeat IPC: 4 cumulative IPC: 4 (Simulation time: 12 hr 01 min 26 sec)
Heartbeat CPU 1 instructions: 410000064 cycles: 194469393 heartbeat IPC: 1.769 cumulative IPC: 1.851 (Simulation time: 12 hr 08 min 27 sec)
Heartbeat CPU 5 instructions: 410000064 cycles: 194469399 heartbeat IPC: 1.769 cumulative IPC: 1.856 (Simulation time: 12 hr 08 min 27 sec)
Heartbeat CPU 6 instructions: 780000003 cycles: 195015259 heartbeat IPC: 4 cumulative IPC: 4 (Simulation time: 12 hr 10 min 33 sec)
Heartbeat CPU 2 instructions: 780000005 cycles: 195015274 heartbeat IPC: 4 cumulative IPC: 4 (Simulation time: 12 hr 10 min 33 sec)
Heartbeat CPU 3 instructions: 780000002 cycles: 195015994 heartbeat IPC: 4 cumulative IPC: 4 (Simulation time: 12 hr 10 min 34 sec)
Heartbeat CPU 7 instructions: 780000002 cycles: 195016004 heartbeat IPC: 4 cumulative IPC: 4 (Simulation time: 12 hr 10 min 34 sec)
Heartbeat CPU 6 instructions: 790000003 cycles: 197515259 heartbeat IPC: 4 cumulative IPC: 4 (Simulation time: 12 hr 20 min 29 sec)
Heartbeat CPU 2 instructions: 790000005 cycles: 197515274 heartbeat IPC: 4 cumulative IPC: 4 (Simulation time: 12 hr 20 min 29 sec)
Heartbeat CPU 3 instructions: 790000002 cycles: 197515994 heartbeat IPC: 4 cumulative IPC: 4 (Simulation time: 12 hr 20 min 29 sec)
Heartbeat CPU 7 instructions: 790000002 cycles: 197516004 heartbeat IPC: 4 cumulative IPC: 4 (Simulation time: 12 hr 20 min 29 sec)
Heartbeat CPU 6 instructions: 800000003 cycles: 200015259 heartbeat IPC: 4 cumulative IPC: 4 (Simulation time: 12 hr 29 min 49 sec)
Heartbeat CPU 2 instructions: 800000005 cycles: 200015274 heartbeat IPC: 4 cumulative IPC: 4 (Simulation time: 12 hr 29 min 49 sec)
Heartbeat CPU 3 instructions: 800000002 cycles: 200015994 heartbeat IPC: 4 cumulative IPC: 4 (Simulation time: 12 hr 29 min 50 sec)
Heartbeat CPU 7 instructions: 800000002 cycles: 200016004 heartbeat IPC: 4 cumulative IPC: 4 (Simulation time: 12 hr 29 min 50 sec)
Heartbeat CPU 6 instructions: 810000003 cycles: 202515259 heartbeat IPC: 4 cumulative IPC: 4 (Simulation time: 12 hr 39 min 29 sec)
Heartbeat CPU 2 instructions: 810000005 cycles: 202515274 heartbeat IPC: 4 cumulative IPC: 4 (Simulation time: 12 hr 39 min 29 sec)
Heartbeat CPU 3 instructions: 810000002 cycles: 202515994 heartbeat IPC: 4 cumulative IPC: 4 (Simulation time: 12 hr 39 min 29 sec)
Heartbeat CPU 7 instructions: 810000002 cycles: 202516004 heartbeat IPC: 4 cumulative IPC: 4 (Simulation time: 12 hr 39 min 29 sec)
Heartbeat CPU 0 instructions: 130000012 cycles: 203102047 heartbeat IPC: 0.802 cumulative IPC: 0.5595 (Simulation time: 12 hr 41 min 40 sec)
Heartbeat CPU 4 instructions: 130000017 cycles: 203102210 heartbeat IPC: 0.802 cumulative IPC: 0.5595 (Simulation time: 12 hr 41 min 40 sec)
Heartbeat CPU 5 instructions: 420000066 cycles: 203691862 heartbeat IPC: 1.084 cumulative IPC: 1.806 (Simulation time: 12 hr 43 min 55 sec)
Heartbeat CPU 1 instructions: 420000066 cycles: 203691862 heartbeat IPC: 1.084 cumulative IPC: 1.802 (Simulation time: 12 hr 43 min 55 sec)
Heartbeat CPU 6 instructions: 820000003 cycles: 205015259 heartbeat IPC: 4 cumulative IPC: 4 (Simulation time: 12 hr 48 min 57 sec)
Heartbeat CPU 2 instructions: 820000005 cycles: 205015274 heartbeat IPC: 4 cumulative IPC: 4 (Simulation time: 12 hr 48 min 57 sec)
Heartbeat CPU 3 instructions: 820000002 cycles: 205015994 heartbeat IPC: 4 cumulative IPC: 4 (Simulation time: 12 hr 48 min 57 sec)
Heartbeat CPU 7 instructions: 820000002 cycles: 205016004 heartbeat IPC: 4 cumulative IPC: 4 (Simulation time: 12 hr 48 min 57 sec)
Heartbeat CPU 6 instructions: 830000003 cycles: 207515259 heartbeat IPC: 4 cumulative IPC: 4 (Simulation time: 12 hr 59 min 26 sec)
Heartbeat CPU 2 instructions: 830000005 cycles: 207515274 heartbeat IPC: 4 cumulative IPC: 4 (Simulation time: 12 hr 59 min 26 sec)
Heartbeat CPU 3 instructions: 830000002 cycles: 207515994 heartbeat IPC: 4 cumulative IPC: 4 (Simulation time: 12 hr 59 min 26 sec)
Heartbeat CPU 7 instructions: 830000002 cycles: 207516004 heartbeat IPC: 4 cumulative IPC: 4 (Simulation time: 12 hr 59 min 26 sec)
Heartbeat CPU 1 instructions: 430000066 cycles: 210000663 heartbeat IPC: 1.585 cumulative IPC: 1.793 (Simulation time: 13 hr 10 min 41 sec)
Heartbeat CPU 5 instructions: 430000066 cycles: 210000699 heartbeat IPC: 1.585 cumulative IPC: 1.797 (Simulation time: 13 hr 10 min 41 sec)
Heartbeat CPU 6 instructions: 840000003 cycles: 210015259 heartbeat IPC: 4 cumulative IPC: 4 (Simulation time: 13 hr 10 min 45 sec)
Heartbeat CPU 2 instructions: 840000005 cycles: 210015274 heartbeat IPC: 4 cumulative IPC: 4 (Simulation time: 13 hr 10 min 45 sec)
Heartbeat CPU 3 instructions: 840000002 cycles: 210015994 heartbeat IPC: 4 cumulative IPC: 4 (Simulation time: 13 hr 10 min 46 sec)
Heartbeat CPU 7 instructions: 840000002 cycles: 210016004 heartbeat IPC: 4 cumulative IPC: 4 (Simulation time: 13 hr 10 min 46 sec)
Heartbeat CPU 0 instructions: 140000015 cycles: 210035835 heartbeat IPC: 1.442 cumulative IPC: 0.6003 (Simulation time: 13 hr 10 min 51 sec)
Heartbeat CPU 4 instructions: 140000020 cycles: 210041234 heartbeat IPC: 1.441 cumulative IPC: 0.6003 (Simulation time: 13 hr 10 min 53 sec)
Heartbeat CPU 6 instructions: 850000003 cycles: 212515259 heartbeat IPC: 4 cumulative IPC: 4 (Simulation time: 13 hr 21 min 34 sec)
Heartbeat CPU 2 instructions: 850000005 cycles: 212515274 heartbeat IPC: 4 cumulative IPC: 4 (Simulation time: 13 hr 21 min 34 sec)
Heartbeat CPU 3 instructions: 850000002 cycles: 212515994 heartbeat IPC: 4 cumulative IPC: 4 (Simulation time: 13 hr 21 min 34 sec)
Heartbeat CPU 7 instructions: 850000002 cycles: 212516004 heartbeat IPC: 4 cumulative IPC: 4 (Simulation time: 13 hr 21 min 34 sec)
Heartbeat CPU 6 instructions: 860000003 cycles: 215015259 heartbeat IPC: 4 cumulative IPC: 4 (Simulation time: 13 hr 31 min 26 sec)
Heartbeat CPU 2 instructions: 860000005 cycles: 215015274 heartbeat IPC: 4 cumulative IPC: 4 (Simulation time: 13 hr 31 min 26 sec)
Heartbeat CPU 3 instructions: 860000002 cycles: 215015994 heartbeat IPC: 4 cumulative IPC: 4 (Simulation time: 13 hr 31 min 26 sec)
Heartbeat CPU 7 instructions: 860000002 cycles: 215016004 heartbeat IPC: 4 cumulative IPC: 4 (Simulation time: 13 hr 31 min 26 sec)
Heartbeat CPU 1 instructions: 440000069 cycles: 215458700 heartbeat IPC: 1.832 cumulative IPC: 1.794 (Simulation time: 13 hr 33 min 11 sec)
Heartbeat CPU 5 instructions: 440000069 cycles: 215458765 heartbeat IPC: 1.832 cumulative IPC: 1.798 (Simulation time: 13 hr 33 min 11 sec)
Heartbeat CPU 6 instructions: 870000003 cycles: 217515259 heartbeat IPC: 4 cumulative IPC: 4 (Simulation time: 13 hr 41 min 14 sec)
Heartbeat CPU 2 instructions: 870000005 cycles: 217515274 heartbeat IPC: 4 cumulative IPC: 4 (Simulation time: 13 hr 41 min 14 sec)
Heartbeat CPU 3 instructions: 870000002 cycles: 217515994 heartbeat IPC: 4 cumulative IPC: 4 (Simulation time: 13 hr 41 min 15 sec)
Heartbeat CPU 7 instructions: 870000002 cycles: 217516004 heartbeat IPC: 4 cumulative IPC: 4 (Simulation time: 13 hr 41 min 15 sec)
Heartbeat CPU 6 instructions: 880000003 cycles: 220015259 heartbeat IPC: 4 cumulative IPC: 4 (Simulation time: 13 hr 49 min 53 sec)
Heartbeat CPU 2 instructions: 880000005 cycles: 220015274 heartbeat IPC: 4 cumulative IPC: 4 (Simulation time: 13 hr 49 min 53 sec)
Heartbeat CPU 3 instructions: 880000002 cycles: 220015994 heartbeat IPC: 4 cumulative IPC: 4 (Simulation time: 13 hr 49 min 53 sec)
Heartbeat CPU 7 instructions: 880000002 cycles: 220016004 heartbeat IPC: 4 cumulative IPC: 4 (Simulation time: 13 hr 49 min 53 sec)
Heartbeat CPU 1 instructions: 450000070 cycles: 221354887 heartbeat IPC: 1.696 cumulative IPC: 1.791 (Simulation time: 13 hr 54 min 14 sec)
Heartbeat CPU 5 instructions: 450000070 cycles: 221354975 heartbeat IPC: 1.696 cumulative IPC: 1.794 (Simulation time: 13 hr 54 min 14 sec)
Heartbeat CPU 6 instructions: 890000003 cycles: 222515259 heartbeat IPC: 4 cumulative IPC: 4 (Simulation time: 13 hr 57 min 04 sec)
Heartbeat CPU 2 instructions: 890000005 cycles: 222515274 heartbeat IPC: 4 cumulative IPC: 4 (Simulation time: 13 hr 57 min 04 sec)
Heartbeat CPU 3 instructions: 890000002 cycles: 222515994 heartbeat IPC: 4 cumulative IPC: 4 (Simulation time: 13 hr 57 min 04 sec)
Heartbeat CPU 7 instructions: 890000002 cycles: 222516004 heartbeat IPC: 4 cumulative IPC: 4 (Simulation time: 13 hr 57 min 04 sec)
Simulation finished CPU 0 instructions: 100000004 cycles: 162997789 cumulative IPC: 0.6135 (Simulation time: 13 hr 58 min 25 sec)
Heartbeat CPU 0 instructions: 150000016 cycles: 223115975 heartbeat IPC: 0.7645 cumulative IPC: 0.6135 (Simulation time: 13 hr 58 min 25 sec)
Heartbeat CPU 4 instructions: 150000024 cycles: 223116086 heartbeat IPC: 0.7648 cumulative IPC: 0.6135 (Simulation time: 13 hr 58 min 25 sec)
Simulation finished CPU 4 instructions: 100000003 cycles: 162997949 cumulative IPC: 0.6135 (Simulation time: 13 hr 58 min 25 sec)
Simulation complete CPU 7 instructions: 651960988 cycles: 162997949 cumulative IPC: 4 (Simulation time: 13 hr 58 min 25 sec)
Simulation complete CPU 6 instructions: 651963486 cycles: 162997949 cumulative IPC: 4 (Simulation time: 13 hr 58 min 25 sec)
Simulation complete CPU 5 instructions: 292716492 cycles: 162997949 cumulative IPC: 1.796 (Simulation time: 13 hr 58 min 25 sec)
Simulation complete CPU 4 instructions: 100000003 cycles: 162997949 cumulative IPC: 0.6135 (Simulation time: 13 hr 58 min 25 sec)
Simulation complete CPU 3 instructions: 651960240 cycles: 162997949 cumulative IPC: 4 (Simulation time: 13 hr 58 min 25 sec)
Simulation complete CPU 2 instructions: 651963426 cycles: 162997949 cumulative IPC: 4 (Simulation time: 13 hr 58 min 25 sec)
Simulation complete CPU 1 instructions: 292118391 cycles: 162997949 cumulative IPC: 1.792 (Simulation time: 13 hr 58 min 25 sec)
Simulation complete CPU 0 instructions: 100000070 cycles: 162997949 cumulative IPC: 0.6135 (Simulation time: 13 hr 58 min 25 sec)

ChampSim completed all CPUs

=== Simulation ===
CPU 0 runs /home/harshraj/COALESCE-Hashed-Perceptron-Cache-Replacement-Policy/simulator/traces/barnes_4t0.champsimtrace
CPU 1 runs /home/harshraj/COALESCE-Hashed-Perceptron-Cache-Replacement-Policy/simulator/traces/barnes_4t1.champsimtrace
CPU 2 runs /home/harshraj/COALESCE-Hashed-Perceptron-Cache-Replacement-Policy/simulator/traces/barnes_4t2.champsimtrace
CPU 3 runs /home/harshraj/COALESCE-Hashed-Perceptron-Cache-Replacement-Policy/simulator/traces/barnes_4t3.champsimtrace
CPU 4 runs /home/harshraj/COALESCE-Hashed-Perceptron-Cache-Replacement-Policy/simulator/traces/barnes_4t0.champsimtrace
CPU 5 runs /home/harshraj/COALESCE-Hashed-Perceptron-Cache-Replacement-Policy/simulator/traces/barnes_4t1.champsimtrace
CPU 6 runs /home/harshraj/COALESCE-Hashed-Perceptron-Cache-Replacement-Policy/simulator/traces/barnes_4t2.champsimtrace
CPU 7 runs /home/harshraj/COALESCE-Hashed-Perceptron-Cache-Replacement-Policy/simulator/traces/barnes_4t3.champsimtrace

Total Simulation Statistics (not including warmup)

CPU 7 cumulative IPC: 4 instructions: 651960988 cycles: 162997949
CPU 7 Branch Prediction Accuracy: -% MPKI: 0 Average ROB Occupancy at Mispredict: -
Branch type MPKI
BRANCH_DIRECT_JUMP: 0
BRANCH_INDIRECT: 0
BRANCH_CONDITIONAL: 0
BRANCH_DIRECT_CALL: 0
BRANCH_INDIRECT_CALL: 0
BRANCH_RETURN: 0


CPU 6 cumulative IPC: 4 instructions: 651963486 cycles: 162997949
CPU 6 Branch Prediction Accuracy: -% MPKI: 0 Average ROB Occupancy at Mispredict: -
Branch type MPKI
BRANCH_DIRECT_JUMP: 0
BRANCH_INDIRECT: 0
BRANCH_CONDITIONAL: 0
BRANCH_DIRECT_CALL: 0
BRANCH_INDIRECT_CALL: 0
BRANCH_RETURN: 0


CPU 5 cumulative IPC: 1.796 instructions: 292716492 cycles: 162997949
CPU 5 Branch Prediction Accuracy: -% MPKI: 0 Average ROB Occupancy at Mispredict: -
Branch type MPKI
BRANCH_DIRECT_JUMP: 0
BRANCH_INDIRECT: 0
BRANCH_CONDITIONAL: 0
BRANCH_DIRECT_CALL: 0
BRANCH_INDIRECT_CALL: 0
BRANCH_RETURN: 0


CPU 4 cumulative IPC: 0.6135 instructions: 100000003 cycles: 162997949
CPU 4 Branch Prediction Accuracy: -% MPKI: 0 Average ROB Occupancy at Mispredict: -
Branch type MPKI
BRANCH_DIRECT_JUMP: 0
BRANCH_INDIRECT: 0
BRANCH_CONDITIONAL: 0
BRANCH_DIRECT_CALL: 0
BRANCH_INDIRECT_CALL: 0
BRANCH_RETURN: 0


CPU 3 cumulative IPC: 4 instructions: 651960240 cycles: 162997949
CPU 3 Branch Prediction Accuracy: -% MPKI: 0 Average ROB Occupancy at Mispredict: -
Branch type MPKI
BRANCH_DIRECT_JUMP: 0
BRANCH_INDIRECT: 0
BRANCH_CONDITIONAL: 0
BRANCH_DIRECT_CALL: 0
BRANCH_INDIRECT_CALL: 0
BRANCH_RETURN: 0


CPU 2 cumulative IPC: 4 instructions: 651963426 cycles: 162997949
CPU 2 Branch Prediction Accuracy: -% MPKI: 0 Average ROB Occupancy at Mispredict: -
Branch type MPKI
BRANCH_DIRECT_JUMP: 0
BRANCH_INDIRECT: 0
BRANCH_CONDITIONAL: 0
BRANCH_DIRECT_CALL: 0
BRANCH_INDIRECT_CALL: 0
BRANCH_RETURN: 0


CPU 1 cumulative IPC: 1.792 instructions: 292118391 cycles: 162997949
CPU 1 Branch Prediction Accuracy: -% MPKI: 0 Average ROB Occupancy at Mispredict: -
Branch type MPKI
BRANCH_DIRECT_JUMP: 0
BRANCH_INDIRECT: 0
BRANCH_CONDITIONAL: 0
BRANCH_DIRECT_CALL: 0
BRANCH_INDIRECT_CALL: 0
BRANCH_RETURN: 0


CPU 0 cumulative IPC: 0.6135 instructions: 100000070 cycles: 162997949
CPU 0 Branch Prediction Accuracy: -% MPKI: 0 Average ROB Occupancy at Mispredict: -
Branch type MPKI
BRANCH_DIRECT_JUMP: 0
BRANCH_INDIRECT: 0
BRANCH_CONDITIONAL: 0
BRANCH_DIRECT_CALL: 0
BRANCH_INDIRECT_CALL: 0
BRANCH_RETURN: 0

cpu7->cpu7_STLB TOTAL        ACCESS:         18 HIT:          8 MISS:         10 MSHR_MERGE:          0
cpu7->cpu7_STLB LOAD         ACCESS:         18 HIT:          8 MISS:         10 MSHR_MERGE:          0
cpu7->cpu7_STLB RFO          ACCESS:          0 HIT:          0 MISS:          0 MSHR_MERGE:          0
cpu7->cpu7_STLB PREFETCH     ACCESS:          0 HIT:          0 MISS:          0 MSHR_MERGE:          0
cpu7->cpu7_STLB WRITE        ACCESS:          0 HIT:          0 MISS:          0 MSHR_MERGE:          0
cpu7->cpu7_STLB TRANSLATION  ACCESS:          0 HIT:          0 MISS:          0 MSHR_MERGE:          0
cpu7->cpu7_STLB PREFETCH REQUESTED:          0 ISSUED:          0 USEFUL:          0 USELESS:          0
cpu7->cpu7_STLB AVERAGE MISS LATENCY: 723.2 cycles
cpu7_STLB COHERENCE INVALIDATIONS:          0
cpu7_STLB COHERENCE WRITE-HIT OTHER-SHARER EVENTS:          0
cpu7->cpu7_L2C TOTAL        ACCESS:         58 HIT:          4 MISS:         54 MSHR_MERGE:          0
cpu7->cpu7_L2C LOAD         ACCESS:         38 HIT:          4 MISS:         34 MSHR_MERGE:          0
cpu7->cpu7_L2C RFO          ACCESS:          0 HIT:          0 MISS:          0 MSHR_MERGE:          0
cpu7->cpu7_L2C PREFETCH     ACCESS:          0 HIT:          0 MISS:          0 MSHR_MERGE:          0
cpu7->cpu7_L2C WRITE        ACCESS:          0 HIT:          0 MISS:          0 MSHR_MERGE:          0
cpu7->cpu7_L2C TRANSLATION  ACCESS:         20 HIT:          0 MISS:         20 MSHR_MERGE:          0
cpu7->cpu7_L2C PREFETCH REQUESTED:          0 ISSUED:          0 USEFUL:          0 USELESS:          0
cpu7->cpu7_L2C AVERAGE MISS LATENCY: 180.9 cycles
cpu7_L2C COHERENCE INVALIDATIONS:          0
cpu7_L2C COHERENCE WRITE-HIT OTHER-SHARER EVENTS:          0
cpu7->cpu7_L1I TOTAL        ACCESS:   93611993 HIT:   93611941 MISS:         52 MSHR_MERGE:         14
cpu7->cpu7_L1I LOAD         ACCESS:   93611993 HIT:   93611941 MISS:         52 MSHR_MERGE:         14
cpu7->cpu7_L1I RFO          ACCESS:          0 HIT:          0 MISS:          0 MSHR_MERGE:          0
cpu7->cpu7_L1I PREFETCH     ACCESS:          0 HIT:          0 MISS:          0 MSHR_MERGE:          0
cpu7->cpu7_L1I WRITE        ACCESS:          0 HIT:          0 MISS:          0 MSHR_MERGE:          0
cpu7->cpu7_L1I TRANSLATION  ACCESS:          0 HIT:          0 MISS:          0 MSHR_MERGE:          0
cpu7->cpu7_L1I PREFETCH REQUESTED:          0 ISSUED:          0 USEFUL:          0 USELESS:          0
cpu7->cpu7_L1I AVERAGE MISS LATENCY: 145.2 cycles
cpu7_L1I COHERENCE INVALIDATIONS:          0
cpu7_L1I COHERENCE WRITE-HIT OTHER-SHARER EVENTS:          0
cpu7->cpu7_L1D TOTAL        ACCESS:         20 HIT:          0 MISS:         20 MSHR_MERGE:          0
cpu7->cpu7_L1D LOAD         ACCESS:          0 HIT:          0 MISS:          0 MSHR_MERGE:          0
cpu7->cpu7_L1D RFO          ACCESS:          0 HIT:          0 MISS:          0 MSHR_MERGE:          0
cpu7->cpu7_L1D PREFETCH     ACCESS:          0 HIT:          0 MISS:          0 MSHR_MERGE:          0
cpu7->cpu7_L1D WRITE        ACCESS:          0 HIT:          0 MISS:          0 MSHR_MERGE:          0
cpu7->cpu7_L1D TRANSLATION  ACCESS:         20 HIT:          0 MISS:         20 MSHR_MERGE:          0
cpu7->cpu7_L1D PREFETCH REQUESTED:          0 ISSUED:          0 USEFUL:          0 USELESS:          0
cpu7->cpu7_L1D AVERAGE MISS LATENCY: 235.6 cycles
cpu7_L1D COHERENCE INVALIDATIONS:          0
cpu7_L1D COHERENCE WRITE-HIT OTHER-SHARER EVENTS:          0
cpu7->cpu7_ITLB TOTAL        ACCESS:   75445428 HIT:   75445395 MISS:         33 MSHR_MERGE:         15
cpu7->cpu7_ITLB LOAD         ACCESS:   75445428 HIT:   75445395 MISS:         33 MSHR_MERGE:         15
cpu7->cpu7_ITLB RFO          ACCESS:          0 HIT:          0 MISS:          0 MSHR_MERGE:          0
cpu7->cpu7_ITLB PREFETCH     ACCESS:          0 HIT:          0 MISS:          0 MSHR_MERGE:          0
cpu7->cpu7_ITLB WRITE        ACCESS:          0 HIT:          0 MISS:          0 MSHR_MERGE:          0
cpu7->cpu7_ITLB TRANSLATION  ACCESS:          0 HIT:          0 MISS:          0 MSHR_MERGE:          0
cpu7->cpu7_ITLB PREFETCH REQUESTED:          0 ISSUED:          0 USEFUL:          0 USELESS:          0
cpu7->cpu7_ITLB AVERAGE MISS LATENCY: 406.3 cycles
cpu7_ITLB COHERENCE INVALIDATIONS:          0
cpu7_ITLB COHERENCE WRITE-HIT OTHER-SHARER EVENTS:          0
cpu7_DTLB COHERENCE INVALIDATIONS:          0
cpu7_DTLB COHERENCE WRITE-HIT OTHER-SHARER EVENTS:          0
cpu6->cpu6_STLB TOTAL        ACCESS:         17 HIT:          7 MISS:         10 MSHR_MERGE:          0
cpu6->cpu6_STLB LOAD         ACCESS:         17 HIT:          7 MISS:         10 MSHR_MERGE:          0
cpu6->cpu6_STLB RFO          ACCESS:          0 HIT:          0 MISS:          0 MSHR_MERGE:          0
cpu6->cpu6_STLB PREFETCH     ACCESS:          0 HIT:          0 MISS:          0 MSHR_MERGE:          0
cpu6->cpu6_STLB WRITE        ACCESS:          0 HIT:          0 MISS:          0 MSHR_MERGE:          0
cpu6->cpu6_STLB TRANSLATION  ACCESS:          0 HIT:          0 MISS:          0 MSHR_MERGE:          0
cpu6->cpu6_STLB PREFETCH REQUESTED:          0 ISSUED:          0 USEFUL:          0 USELESS:          0
cpu6->cpu6_STLB AVERAGE MISS LATENCY: 670.2 cycles
cpu6_STLB COHERENCE INVALIDATIONS:          0
cpu6_STLB COHERENCE WRITE-HIT OTHER-SHARER EVENTS:          0
cpu6->cpu6_L2C TOTAL        ACCESS:         58 HIT:          4 MISS:         54 MSHR_MERGE:          0
cpu6->cpu6_L2C LOAD         ACCESS:         38 HIT:          4 MISS:         34 MSHR_MERGE:          0
cpu6->cpu6_L2C RFO          ACCESS:          0 HIT:          0 MISS:          0 MSHR_MERGE:          0
cpu6->cpu6_L2C PREFETCH     ACCESS:          0 HIT:          0 MISS:          0 MSHR_MERGE:          0
cpu6->cpu6_L2C WRITE        ACCESS:          0 HIT:          0 MISS:          0 MSHR_MERGE:          0
cpu6->cpu6_L2C TRANSLATION  ACCESS:         20 HIT:          0 MISS:         20 MSHR_MERGE:          0
cpu6->cpu6_L2C PREFETCH REQUESTED:          0 ISSUED:          0 USEFUL:          0 USELESS:          0
cpu6->cpu6_L2C AVERAGE MISS LATENCY: 205 cycles
cpu6_L2C COHERENCE INVALIDATIONS:          0
cpu6_L2C COHERENCE WRITE-HIT OTHER-SHARER EVENTS:          0
cpu6->cpu6_L1I TOTAL        ACCESS:   95059319 HIT:   95059265 MISS:         54 MSHR_MERGE:         16
cpu6->cpu6_L1I LOAD         ACCESS:   95059319 HIT:   95059265 MISS:         54 MSHR_MERGE:         16
cpu6->cpu6_L1I RFO          ACCESS:          0 HIT:          0 MISS:          0 MSHR_MERGE:          0
cpu6->cpu6_L1I PREFETCH     ACCESS:          0 HIT:          0 MISS:          0 MSHR_MERGE:          0
cpu6->cpu6_L1I WRITE        ACCESS:          0 HIT:          0 MISS:          0 MSHR_MERGE:          0
cpu6->cpu6_L1I TRANSLATION  ACCESS:          0 HIT:          0 MISS:          0 MSHR_MERGE:          0
cpu6->cpu6_L1I PREFETCH REQUESTED:          0 ISSUED:          0 USEFUL:          0 USELESS:          0
cpu6->cpu6_L1I AVERAGE MISS LATENCY: 182.7 cycles
cpu6_L1I COHERENCE INVALIDATIONS:          0
cpu6_L1I COHERENCE WRITE-HIT OTHER-SHARER EVENTS:          0
cpu6->cpu6_L1D TOTAL        ACCESS:         20 HIT:          0 MISS:         20 MSHR_MERGE:          0
cpu6->cpu6_L1D LOAD         ACCESS:          0 HIT:          0 MISS:          0 MSHR_MERGE:          0
cpu6->cpu6_L1D RFO          ACCESS:          0 HIT:          0 MISS:          0 MSHR_MERGE:          0
cpu6->cpu6_L1D PREFETCH     ACCESS:          0 HIT:          0 MISS:          0 MSHR_MERGE:          0
cpu6->cpu6_L1D WRITE        ACCESS:          0 HIT:          0 MISS:          0 MSHR_MERGE:          0
[...]
cpu2->cpu2_STLB PREFETCH REQUESTED:          0 ISSUED:          0 USEFUL:          0 USELESS:          0
cpu2->cpu2_STLB AVERAGE MISS LATENCY: 678.2 cycles
cpu2_STLB COHERENCE INVALIDATIONS:          0
cpu2_STLB COHERENCE WRITE-HIT OTHER-SHARER EVENTS:          0
cpu2->cpu2_L2C TOTAL        ACCESS:         58 HIT:          4 MISS:         54 MSHR_MERGE:          0
cpu2->cpu2_L2C LOAD         ACCESS:         38 HIT:          4 MISS:         34 MSHR_MERGE:          0
cpu2->cpu2_L2C RFO          ACCESS:          0 HIT:          0 MISS:          0 MSHR_MERGE:          0
cpu2->cpu2_L2C PREFETCH     ACCESS:          0 HIT:          0 MISS:          0 MSHR_MERGE:          0
cpu2->cpu2_L2C WRITE        ACCESS:          0 HIT:          0 MISS:          0 MSHR_MERGE:          0
cpu2->cpu2_L2C TRANSLATION  ACCESS:         20 HIT:          0 MISS:         20 MSHR_MERGE:          0
cpu2->cpu2_L2C PREFETCH REQUESTED:          0 ISSUED:          0 USEFUL:          0 USELESS:          0
cpu2->cpu2_L2C AVERAGE MISS LATENCY: 189.2 cycles
cpu2_L2C COHERENCE INVALIDATIONS:          0
cpu2_L2C COHERENCE WRITE-HIT OTHER-SHARER EVENTS:          0
cpu2->cpu2_L1I TOTAL        ACCESS:   94200836 HIT:   94200785 MISS:         51 MSHR_MERGE:         13
cpu2->cpu2_L1I LOAD         ACCESS:   94200836 HIT:   94200785 MISS:         51 MSHR_MERGE:         13
cpu2->cpu2_L1I RFO          ACCESS:          0 HIT:          0 MISS:          0 MSHR_MERGE:          0
cpu2->cpu2_L1I PREFETCH     ACCESS:          0 HIT:          0 MISS:          0 MSHR_MERGE:          0
cpu2->cpu2_L1I WRITE        ACCESS:          0 HIT:          0 MISS:          0 MSHR_MERGE:          0
cpu2->cpu2_L1I TRANSLATION  ACCESS:          0 HIT:          0 MISS:          0 MSHR_MERGE:          0
cpu2->cpu2_L1I PREFETCH REQUESTED:          0 ISSUED:          0 USEFUL:          0 USELESS:          0
cpu2->cpu2_L1I AVERAGE MISS LATENCY: 158.3 cycles
cpu2_L1I COHERENCE INVALIDATIONS:          0
cpu2_L1I COHERENCE WRITE-HIT OTHER-SHARER EVENTS:          0
cpu2->cpu2_L1D TOTAL        ACCESS:         20 HIT:          0 MISS:         20 MSHR_MERGE:          0
cpu2->cpu2_L1D LOAD         ACCESS:          0 HIT:          0 MISS:          0 MSHR_MERGE:          0
cpu2->cpu2_L1D RFO          ACCESS:          0 HIT:          0 MISS:          0 MSHR_MERGE:          0
cpu2->cpu2_L1D PREFETCH     ACCESS:          0 HIT:          0 MISS:          0 MSHR_MERGE:          0
cpu2->cpu2_L1D WRITE        ACCESS:          0 HIT:          0 MISS:          0 MSHR_MERGE:          0
cpu2->cpu2_L1D TRANSLATION  ACCESS:         20 HIT:          0 MISS:         20 MSHR_MERGE:          0
cpu2->cpu2_L1D PREFETCH REQUESTED:          0 ISSUED:          0 USEFUL:          0 USELESS:          0
cpu2->cpu2_L1D AVERAGE MISS LATENCY: 233.1 cycles
cpu2_L1D COHERENCE INVALIDATIONS:          0
cpu2_L1D COHERENCE WRITE-HIT OTHER-SHARER EVENTS:          0
cpu2->cpu2_ITLB TOTAL        ACCESS:   75239992 HIT:   75239965 MISS:         27 MSHR_MERGE:         10
cpu2->cpu2_ITLB LOAD         ACCESS:   75239992 HIT:   75239965 MISS:         27 MSHR_MERGE:         10
cpu2->cpu2_ITLB RFO          ACCESS:          0 HIT:          0 MISS:          0 MSHR_MERGE:          0
cpu2->cpu2_ITLB PREFETCH     ACCESS:          0 HIT:          0 MISS:          0 MSHR_MERGE:          0
cpu2->cpu2_ITLB WRITE        ACCESS:          0 HIT:          0 MISS:          0 MSHR_MERGE:          0
cpu2->cpu2_ITLB TRANSLATION  ACCESS:          0 HIT:          0 MISS:          0 MSHR_MERGE:          0
cpu2->cpu2_ITLB PREFETCH REQUESTED:          0 ISSUED:          0 USEFUL:          0 USELESS:          0
cpu2->cpu2_ITLB AVERAGE MISS LATENCY: 403.5 cycles
cpu2_ITLB COHERENCE INVALIDATIONS:          0
cpu2_ITLB COHERENCE WRITE-HIT OTHER-SHARER EVENTS:          0
cpu2_DTLB COHERENCE INVALIDATIONS:          0
cpu2_DTLB COHERENCE WRITE-HIT OTHER-SHARER EVENTS:          0
cpu1->cpu1_STLB TOTAL        ACCESS:    1095605 HIT:    1095437 MISS:        168 MSHR_MERGE:          0
cpu1->cpu1_STLB LOAD         ACCESS:    1095605 HIT:    1095437 MISS:        168 MSHR_MERGE:          0
cpu1->cpu1_STLB RFO          ACCESS:          0 HIT:          0 MISS:          0 MSHR_MERGE:          0
cpu1->cpu1_STLB PREFETCH     ACCESS:          0 HIT:          0 MISS:          0 MSHR_MERGE:          0
cpu1->cpu1_STLB WRITE        ACCESS:          0 HIT:          0 MISS:          0 MSHR_MERGE:          0
cpu1->cpu1_STLB TRANSLATION  ACCESS:          0 HIT:          0 MISS:          0 MSHR_MERGE:          0
cpu1->cpu1_STLB PREFETCH REQUESTED:          0 ISSUED:          0 USEFUL:          0 USELESS:          0
cpu1->cpu1_STLB AVERAGE MISS LATENCY: 615.4 cycles
cpu1_STLB COHERENCE INVALIDATIONS:          0
cpu1_STLB COHERENCE WRITE-HIT OTHER-SHARER EVENTS:          0
cpu1->cpu1_L2C TOTAL        ACCESS:    3269981 HIT:    2985805 MISS:     284176 MSHR_MERGE:          0
cpu1->cpu1_L2C LOAD         ACCESS:    3269784 HIT:    2985805 MISS:     283979 MSHR_MERGE:          0
cpu1->cpu1_L2C RFO          ACCESS:          0 HIT:          0 MISS:          0 MSHR_MERGE:          0
cpu1->cpu1_L2C PREFETCH     ACCESS:          0 HIT:          0 MISS:          0 MSHR_MERGE:          0
cpu1->cpu1_L2C WRITE        ACCESS:          0 HIT:          0 MISS:          0 MSHR_MERGE:          0
cpu1->cpu1_L2C TRANSLATION  ACCESS:        197 HIT:          0 MISS:        197 MSHR_MERGE:          0
cpu1->cpu1_L2C PREFETCH REQUESTED:          0 ISSUED:          0 USEFUL:          0 USELESS:          0
cpu1->cpu1_L2C AVERAGE MISS LATENCY: 162.6 cycles
cpu1_L2C COHERENCE INVALIDATIONS:          0
cpu1_L2C COHERENCE WRITE-HIT OTHER-SHARER EVENTS:          0
cpu1->cpu1_L1I TOTAL        ACCESS:   61486279 HIT:   58154688 MISS:    3331591 MSHR_MERGE:      61807
cpu1->cpu1_L1I LOAD         ACCESS:   61486279 HIT:   58154688 MISS:    3331591 MSHR_MERGE:      61807
cpu1->cpu1_L1I RFO          ACCESS:          0 HIT:          0 MISS:          0 MSHR_MERGE:          0
cpu1->cpu1_L1I PREFETCH     ACCESS:          0 HIT:          0 MISS:          0 MSHR_MERGE:          0
cpu1->cpu1_L1I WRITE        ACCESS:          0 HIT:          0 MISS:          0 MSHR_MERGE:          0
cpu1->cpu1_L1I TRANSLATION  ACCESS:          0 HIT:          0 MISS:          0 MSHR_MERGE:          0
cpu1->cpu1_L1I PREFETCH REQUESTED:          0 ISSUED:          0 USEFUL:          0 USELESS:          0
cpu1->cpu1_L1I AVERAGE MISS LATENCY: 21.21 cycles
cpu1_L1I COHERENCE INVALIDATIONS:          0
cpu1_L1I COHERENCE WRITE-HIT OTHER-SHARER EVENTS:          0
cpu1->cpu1_L1D TOTAL        ACCESS:        339 HIT:        142 MISS:        197 MSHR_MERGE:          0
cpu1->cpu1_L1D LOAD         ACCESS:          0 HIT:          0 MISS:          0 MSHR_MERGE:          0
cpu1->cpu1_L1D RFO          ACCESS:          0 HIT:          0 MISS:          0 MSHR_MERGE:          0
cpu1->cpu1_L1D PREFETCH     ACCESS:          0 HIT:          0 MISS:          0 MSHR_MERGE:          0
cpu1->cpu1_L1D WRITE        ACCESS:          0 HIT:          0 MISS:          0 MSHR_MERGE:          0
cpu1->cpu1_L1D TRANSLATION  ACCESS:        339 HIT:        142 MISS:        197 MSHR_MERGE:          0
cpu1->cpu1_L1D PREFETCH REQUESTED:          0 ISSUED:          0 USEFUL:          0 USELESS:          0
cpu1->cpu1_L1D AVERAGE MISS LATENCY: 216.7 cycles
cpu1_L1D COHERENCE INVALIDATIONS:          0
cpu1_L1D COHERENCE WRITE-HIT OTHER-SHARER EVENTS:          0
cpu1->cpu1_ITLB TOTAL        ACCESS:   59106195 HIT:   57951612 MISS:    1154583 MSHR_MERGE:      58978
cpu1->cpu1_ITLB LOAD         ACCESS:   59106195 HIT:   57951612 MISS:    1154583 MSHR_MERGE:      58978
cpu1->cpu1_ITLB RFO          ACCESS:          0 HIT:          0 MISS:          0 MSHR_MERGE:          0
cpu1->cpu1_ITLB PREFETCH     ACCESS:          0 HIT:          0 MISS:          0 MSHR_MERGE:          0
cpu1->cpu1_ITLB WRITE        ACCESS:          0 HIT:          0 MISS:          0 MSHR_MERGE:          0
cpu1->cpu1_ITLB TRANSLATION  ACCESS:          0 HIT:          0 MISS:          0 MSHR_MERGE:          0
cpu1->cpu1_ITLB PREFETCH REQUESTED:          0 ISSUED:          0 USEFUL:          0 USELESS:          0
cpu1->cpu1_ITLB AVERAGE MISS LATENCY: 4.095 cycles
cpu1_ITLB COHERENCE INVALIDATIONS:          0
cpu1_ITLB COHERENCE WRITE-HIT OTHER-SHARER EVENTS:          0
cpu1_DTLB COHERENCE INVALIDATIONS:          0
cpu1_DTLB COHERENCE WRITE-HIT OTHER-SHARER EVENTS:          0
cpu0->cpu0_STLB TOTAL        ACCESS:    3021839 HIT:    3008906 MISS:      12933 MSHR_MERGE:          0
cpu0->cpu0_STLB LOAD         ACCESS:    3021839 HIT:    3008906 MISS:      12933 MSHR_MERGE:          0
cpu0->cpu0_STLB RFO          ACCESS:          0 HIT:          0 MISS:          0 MSHR_MERGE:          0
cpu0->cpu0_STLB PREFETCH     ACCESS:          0 HIT:          0 MISS:          0 MSHR_MERGE:          0
cpu0->cpu0_STLB WRITE        ACCESS:          0 HIT:          0 MISS:          0 MSHR_MERGE:          0
cpu0->cpu0_STLB TRANSLATION  ACCESS:          0 HIT:          0 MISS:          0 MSHR_MERGE:          0
cpu0->cpu0_STLB PREFETCH REQUESTED:          0 ISSUED:          0 USEFUL:          0 USELESS:          0
cpu0->cpu0_STLB AVERAGE MISS LATENCY: 247.9 cycles
cpu0_STLB COHERENCE INVALIDATIONS:          0
cpu0_STLB COHERENCE WRITE-HIT OTHER-SHARER EVENTS:          0
cpu0->cpu0_L2C TOTAL        ACCESS:    4709827 HIT:    4300594 MISS:     409233 MSHR_MERGE:          0
cpu0->cpu0_L2C LOAD         ACCESS:    3759493 HIT:    3416172 MISS:     343321 MSHR_MERGE:          0
cpu0->cpu0_L2C RFO          ACCESS:     343127 HIT:     291434 MISS:      51693 MSHR_MERGE:          0
cpu0->cpu0_L2C PREFETCH     ACCESS:          0 HIT:          0 MISS:          0 MSHR_MERGE:          0
cpu0->cpu0_L2C WRITE        ACCESS:     579017 HIT:     578742 MISS:        275 MSHR_MERGE:          0
cpu0->cpu0_L2C TRANSLATION  ACCESS:      28190 HIT:      14246 MISS:      13944 MSHR_MERGE:          0
cpu0->cpu0_L2C PREFETCH REQUESTED:          0 ISSUED:          0 USEFUL:          0 USELESS:          0
cpu0->cpu0_L2C AVERAGE MISS LATENCY: 181.6 cycles
cpu0_L2C COHERENCE INVALIDATIONS:          0
cpu0_L2C COHERENCE WRITE-HIT OTHER-SHARER EVENTS:          0
cpu0->cpu0_L1I TOTAL        ACCESS:   25942613 HIT:   25942598 MISS:         15 MSHR_MERGE:          2
cpu0->cpu0_L1I LOAD         ACCESS:   25942613 HIT:   25942598 MISS:         15 MSHR_MERGE:          2
cpu0->cpu0_L1I RFO          ACCESS:          0 HIT:          0 MISS:          0 MSHR_MERGE:          0
cpu0->cpu0_L1I PREFETCH     ACCESS:          0 HIT:          0 MISS:          0 MSHR_MERGE:          0
cpu0->cpu0_L1I WRITE        ACCESS:          0 HIT:          0 MISS:          0 MSHR_MERGE:          0
cpu0->cpu0_L1I TRANSLATION  ACCESS:          0 HIT:          0 MISS:          0 MSHR_MERGE:          0
cpu0->cpu0_L1I PREFETCH REQUESTED:          0 ISSUED:          0 USEFUL:          0 USELESS:          0
cpu0->cpu0_L1I AVERAGE MISS LATENCY: 235.8 cycles
cpu0_L1I COHERENCE INVALIDATIONS:          0
cpu0_L1I COHERENCE WRITE-HIT OTHER-SHARER EVENTS:          0
cpu0->cpu0_L1D TOTAL        ACCESS:   63861264 HIT:   59646166 MISS:    4215098 MSHR_MERGE:      84016
cpu0->cpu0_L1D LOAD         ACCESS:   16954535 HIT:   13181829 MISS:    3772706 MSHR_MERGE:      13175
cpu0->cpu0_L1D RFO          ACCESS:          0 HIT:          0 MISS:          0 MSHR_MERGE:          0
cpu0->cpu0_L1D PREFETCH     ACCESS:          0 HIT:          0 MISS:          0 MSHR_MERGE:          0
cpu0->cpu0_L1D WRITE        ACCESS:   46875387 HIT:   46461192 MISS:     414195 MSHR_MERGE:      70834
cpu0->cpu0_L1D TRANSLATION  ACCESS:      31342 HIT:       3145 MISS:      28197 MSHR_MERGE:          7
cpu0->cpu0_L1D PREFETCH REQUESTED:          0 ISSUED:          0 USEFUL:          0 USELESS:          0
cpu0->cpu0_L1D AVERAGE MISS LATENCY: 25.09 cycles
cpu0_L1D COHERENCE INVALIDATIONS:          0
cpu0_L1D COHERENCE WRITE-HIT OTHER-SHARER EVENTS:          0
cpu0->cpu0_ITLB TOTAL        ACCESS:   23699745 HIT:   23699745 MISS:          0 MSHR_MERGE:          0
cpu0->cpu0_ITLB LOAD         ACCESS:   23699745 HIT:   23699745 MISS:          0 MSHR_MERGE:          0
cpu0->cpu0_ITLB RFO          ACCESS:          0 HIT:          0 MISS:          0 MSHR_MERGE:          0
cpu0->cpu0_ITLB PREFETCH     ACCESS:          0 HIT:          0 MISS:          0 MSHR_MERGE:          0
cpu0->cpu0_ITLB WRITE        ACCESS:          0 HIT:          0 MISS:          0 MSHR_MERGE:          0
cpu0->cpu0_ITLB TRANSLATION  ACCESS:          0 HIT:          0 MISS:          0 MSHR_MERGE:          0
cpu0->cpu0_ITLB PREFETCH REQUESTED:          0 ISSUED:          0 USEFUL:          0 USELESS:          0
cpu0->cpu0_ITLB AVERAGE MISS LATENCY: - cycles
cpu0_ITLB COHERENCE INVALIDATIONS:          0
cpu0_ITLB COHERENCE WRITE-HIT OTHER-SHARER EVENTS:          0
cpu0->cpu0_DTLB TOTAL        ACCESS:   62025892 HIT:   58832219 MISS:    3193673 MSHR_MERGE:     171834
cpu0->cpu0_DTLB LOAD         ACCESS:   62025892 HIT:   58832219 MISS:    3193673 MSHR_MERGE:     171834
cpu0->cpu0_DTLB RFO          ACCESS:          0 HIT:          0 MISS:          0 MSHR_MERGE:          0
cpu0->cpu0_DTLB PREFETCH     ACCESS:          0 HIT:          0 MISS:          0 MSHR_MERGE:          0
cpu0->cpu0_DTLB WRITE        ACCESS:          0 HIT:          0 MISS:          0 MSHR_MERGE:          0
cpu0->cpu0_DTLB TRANSLATION  ACCESS:          0 HIT:          0 MISS:          0 MSHR_MERGE:          0
cpu0->cpu0_DTLB PREFETCH REQUESTED:          0 ISSUED:          0 USEFUL:          0 USELESS:          0
cpu0->cpu0_DTLB AVERAGE MISS LATENCY: 5.065 cycles
cpu0_DTLB COHERENCE INVALIDATIONS:          0
cpu0_DTLB COHERENCE WRITE-HIT OTHER-SHARER EVENTS:          0
cpu0->LLC TOTAL        ACCESS:     513481 HIT:     119483 MISS:     393998 MSHR_MERGE:      52845
cpu0->LLC LOAD         ACCESS:     343321 HIT:      82597 MISS:     260724 MSHR_MERGE:      43731
cpu0->LLC RFO          ACCESS:      51692 HIT:      12118 MISS:      39574 MSHR_MERGE:       9114
cpu0->LLC PREFETCH     ACCESS:          0 HIT:          0 MISS:          0 MSHR_MERGE:          0
cpu0->LLC WRITE        ACCESS:     104524 HIT:      22254 MISS:      82270 MSHR_MERGE:          0
cpu0->LLC TRANSLATION  ACCESS:      13944 HIT:       2514 MISS:      11430 MSHR_MERGE:          0
cpu0->LLC PREFETCH REQUESTED:          0 ISSUED:          0 USEFUL:          0 USELESS:          0
cpu0->LLC AVERAGE MISS LATENCY: 693.3 cycles
cpu1->LLC TOTAL        ACCESS:     284176 HIT:      63352 MISS:     220824 MSHR_MERGE:      40203
cpu1->LLC LOAD         ACCESS:     283979 HIT:      63352 MISS:     220627 MSHR_MERGE:      40203
cpu1->LLC RFO          ACCESS:          0 HIT:          0 MISS:          0 MSHR_MERGE:          0
cpu1->LLC PREFETCH     ACCESS:          0 HIT:          0 MISS:          0 MSHR_MERGE:          0
cpu1->LLC WRITE        ACCESS:          0 HIT:          0 MISS:          0 MSHR_MERGE:          0
cpu1->LLC TRANSLATION  ACCESS:        197 HIT:          0 MISS:        197 MSHR_MERGE:          0
cpu1->LLC PREFETCH REQUESTED:          0 ISSUED:          0 USEFUL:          0 USELESS:          0
cpu1->LLC AVERAGE MISS LATENCY: 2226 cycles
cpu2->LLC TOTAL        ACCESS:         54 HIT:          5 MISS:         49 MSHR_MERGE:         20
cpu2->LLC LOAD         ACCESS:         34 HIT:          5 MISS:         29 MSHR_MERGE:         20
cpu2->LLC RFO          ACCESS:          0 HIT:          0 MISS:          0 MSHR_MERGE:          0
cpu2->LLC PREFETCH     ACCESS:          0 HIT:          0 MISS:          0 MSHR_MERGE:          0
cpu2->LLC WRITE        ACCESS:          0 HIT:          0 MISS:          0 MSHR_MERGE:          0
cpu2->LLC TRANSLATION  ACCESS:         20 HIT:          0 MISS:         20 MSHR_MERGE:          0
cpu2->LLC PREFETCH REQUESTED:          0 ISSUED:          0 USEFUL:          0 USELESS:          0
cpu2->LLC AVERAGE MISS LATENCY: 2.622e+06 cycles
cpu3->LLC TOTAL        ACCESS:         54 HIT:          4 MISS:         50 MSHR_MERGE:          8
cpu3->LLC LOAD         ACCESS:         34 HIT:          4 MISS:         30 MSHR_MERGE:          8
cpu3->LLC RFO          ACCESS:          0 HIT:          0 MISS:          0 MSHR_MERGE:          0
cpu3->LLC PREFETCH     ACCESS:          0 HIT:          0 MISS:          0 MSHR_MERGE:          0
cpu3->LLC WRITE        ACCESS:          0 HIT:          0 MISS:          0 MSHR_MERGE:          0
cpu3->LLC TRANSLATION  ACCESS:         20 HIT:          0 MISS:         20 MSHR_MERGE:          0
cpu3->LLC PREFETCH REQUESTED:          0 ISSUED:          0 USEFUL:          0 USELESS:          0
cpu3->LLC AVERAGE MISS LATENCY: 3.204e+06 cycles
cpu4->LLC TOTAL        ACCESS:     513054 HIT:     139792 MISS:     373262 MSHR_MERGE:     227609
cpu4->LLC LOAD         ACCESS:     343192 HIT:      96482 MISS:     246710 MSHR_MERGE:     198147
cpu4->LLC RFO          ACCESS:      51732 HIT:      12765 MISS:      38967 MSHR_MERGE:      29462
cpu4->LLC PREFETCH     ACCESS:          0 HIT:          0 MISS:          0 MSHR_MERGE:          0
cpu4->LLC WRITE        ACCESS:     104545 HIT:      28179 MISS:      76366 MSHR_MERGE:          0
cpu4->LLC TRANSLATION  ACCESS:      13585 HIT:       2366 MISS:      11219 MSHR_MERGE:          0
cpu4->LLC PREFETCH REQUESTED:          0 ISSUED:          0 USEFUL:          0 USELESS:          0
cpu4->LLC AVERAGE MISS LATENCY: 360 cycles
cpu5->LLC TOTAL        ACCESS:     284620 HIT:      73085 MISS:     211535 MSHR_MERGE:     169011
cpu5->LLC LOAD         ACCESS:     284423 HIT:      73084 MISS:     211339 MSHR_MERGE:     169011
cpu5->LLC RFO          ACCESS:          0 HIT:          0 MISS:          0 MSHR_MERGE:          0
cpu5->LLC PREFETCH     ACCESS:          0 HIT:          0 MISS:          0 MSHR_MERGE:          0
cpu5->LLC WRITE        ACCESS:          0 HIT:          0 MISS:          0 MSHR_MERGE:          0
cpu5->LLC TRANSLATION  ACCESS:        197 HIT:          1 MISS:        196 MSHR_MERGE:          0
cpu5->LLC PREFETCH REQUESTED:          0 ISSUED:          0 USEFUL:          0 USELESS:          0
cpu5->LLC AVERAGE MISS LATENCY: 673.3 cycles
cpu6->LLC TOTAL        ACCESS:         54 HIT:          9 MISS:         45 MSHR_MERGE:          5
cpu6->LLC LOAD         ACCESS:         34 HIT:          9 MISS:         25 MSHR_MERGE:          5
cpu6->LLC RFO          ACCESS:          0 HIT:          0 MISS:          0 MSHR_MERGE:          0
cpu6->LLC PREFETCH     ACCESS:          0 HIT:          0 MISS:          0 MSHR_MERGE:          0
cpu6->LLC WRITE        ACCESS:          0 HIT:          0 MISS:          0 MSHR_MERGE:          0
cpu6->LLC TRANSLATION  ACCESS:         20 HIT:          0 MISS:         20 MSHR_MERGE:          0
cpu6->LLC PREFETCH REQUESTED:          0 ISSUED:          0 USEFUL:          0 USELESS:          0
cpu6->LLC AVERAGE MISS LATENCY: 4.614e+06 cycles
cpu7->LLC TOTAL        ACCESS:         54 HIT:         12 MISS:         42 MSHR_MERGE:         14
cpu7->LLC LOAD         ACCESS:         34 HIT:         12 MISS:         22 MSHR_MERGE:         14
cpu7->LLC RFO          ACCESS:          0 HIT:          0 MISS:          0 MSHR_MERGE:          0
cpu7->LLC PREFETCH     ACCESS:          0 HIT:          0 MISS:          0 MSHR_MERGE:          0
cpu7->LLC WRITE        ACCESS:          0 HIT:          0 MISS:          0 MSHR_MERGE:          0
cpu7->LLC TRANSLATION  ACCESS:         20 HIT:          0 MISS:         20 MSHR_MERGE:          0
cpu7->LLC PREFETCH REQUESTED:          0 ISSUED:          0 USEFUL:          0 USELESS:          0
cpu7->LLC AVERAGE MISS LATENCY: 3.393e+06 cycles
LLC COHERENCE INVALIDATIONS:      50526
LLC COHERENCE WRITE-HIT OTHER-SHARER EVENTS:      46025

DRAM Statistics

Channel 0 RQ ROW_BUFFER_HIT:       4405
  ROW_BUFFER_MISS:     546696
  AVG DBUS CONGESTED CYCLE: 12.62
Channel 0 WQ ROW_BUFFER_HIT:      32472
  ROW_BUFFER_MISS:     136970
  FULL:         83
Channel 0 REFRESHES ISSUED:      13584

VMEM ALIASED FILLS (cross-CPU shared-page hits): 26699
