[VMEM] WARNING: physical memory size is smaller than virtual memory size.

*** ChampSim Multicore Out-of-Order Simulator ***
Warmup Instructions: 50000000
Simulation Instructions: 100000000
Number of CPUs: 8
Page size: 4096

Off-chip DRAM Size: 16 GiB Channels: 1 Width: 64-bit Data Rate: 3205 MT/s
Heartbeat CPU 3 instructions: 10000002 cycles: 2508105 heartbeat IPC: 3.987 cumulative IPC: 3.987 (Simulation time: 00 hr 10 min 54 sec)
Heartbeat CPU 2 instructions: 10000003 cycles: 2508181 heartbeat IPC: 3.987 cumulative IPC: 3.987 (Simulation time: 00 hr 10 min 54 sec)
Heartbeat CPU 6 instructions: 10000001 cycles: 2508181 heartbeat IPC: 3.987 cumulative IPC: 3.987 (Simulation time: 00 hr 10 min 54 sec)
Heartbeat CPU 7 instructions: 10000002 cycles: 2508302 heartbeat IPC: 3.987 cumulative IPC: 3.987 (Simulation time: 00 hr 10 min 54 sec)
Heartbeat CPU 4 instructions: 10000002 cycles: 2979856 heartbeat IPC: 3.356 cumulative IPC: 3.356 (Simulation time: 00 hr 12 min 45 sec)
Heartbeat CPU 0 instructions: 10000000 cycles: 2980112 heartbeat IPC: 3.356 cumulative IPC: 3.356 (Simulation time: 00 hr 12 min 45 sec)
Heartbeat CPU 1 instructions: 10000002 cycles: 4085944 heartbeat IPC: 2.447 cumulative IPC: 2.447 (Simulation time: 00 hr 17 min 00 sec)
Heartbeat CPU 5 instructions: 10000002 cycles: 4089718 heartbeat IPC: 2.445 cumulative IPC: 2.445 (Simulation time: 00 hr 17 min 01 sec)
Heartbeat CPU 3 instructions: 20000002 cycles: 5008105 heartbeat IPC: 4 cumulative IPC: 3.994 (Simulation time: 00 hr 20 min 40 sec)
Heartbeat CPU 2 instructions: 20000003 cycles: 5008181 heartbeat IPC: 4 cumulative IPC: 3.993 (Simulation time: 00 hr 20 min 40 sec)
Heartbeat CPU 6 instructions: 20000001 cycles: 5008181 heartbeat IPC: 4 cumulative IPC: 3.993 (Simulation time: 00 hr 20 min 40 sec)
Heartbeat CPU 7 instructions: 20000002 cycles: 5008302 heartbeat IPC: 4 cumulative IPC: 3.993 (Simulation time: 00 hr 20 min 40 sec)
Heartbeat CPU 3 instructions: 30000002 cycles: 7508105 heartbeat IPC: 4 cumulative IPC: 3.996 (Simulation time: 00 hr 30 min 12 sec)
Heartbeat CPU 2 instructions: 30000003 cycles: 7508181 heartbeat IPC: 4 cumulative IPC: 3.996 (Simulation time: 00 hr 30 min 12 sec)
Heartbeat CPU 6 instructions: 30000001 cycles: 7508181 heartbeat IPC: 4 cumulative IPC: 3.996 (Simulation time: 00 hr 30 min 12 sec)
Heartbeat CPU 7 instructions: 30000002 cycles: 7508302 heartbeat IPC: 4 cumulative IPC: 3.996 (Simulation time: 00 hr 30 min 12 sec)
Heartbeat CPU 1 instructions: 20000004 cycles: 7759846 heartbeat IPC: 2.722 cumulative IPC: 2.577 (Simulation time: 00 hr 31 min 10 sec)
Heartbeat CPU 5 instructions: 20000004 cycles: 7778216 heartbeat IPC: 2.711 cumulative IPC: 2.571 (Simulation time: 00 hr 31 min 15 sec)
Heartbeat CPU 3 instructions: 40000002 cycles: 10008105 heartbeat IPC: 4 cumulative IPC: 3.997 (Simulation time: 00 hr 40 min 00 sec)
Heartbeat CPU 2 instructions: 40000003 cycles: 10008181 heartbeat IPC: 4 cumulative IPC: 3.997 (Simulation time: 00 hr 40 min 00 sec)
Heartbeat CPU 6 instructions: 40000001 cycles: 10008181 heartbeat IPC: 4 cumulative IPC: 3.997 (Simulation time: 00 hr 40 min 00 sec)
Heartbeat CPU 7 instructions: 40000002 cycles: 10008302 heartbeat IPC: 4 cumulative IPC: 3.997 (Simulation time: 00 hr 40 min 00 sec)
Heartbeat CPU 1 instructions: 30000005 cycles: 11456094 heartbeat IPC: 2.705 cumulative IPC: 2.619 (Simulation time: 00 hr 45 min 24 sec)
Heartbeat CPU 5 instructions: 30000005 cycles: 11489355 heartbeat IPC: 2.695 cumulative IPC: 2.611 (Simulation time: 00 hr 45 min 31 sec)
Heartbeat CPU 3 instructions: 50000002 cycles: 12508105 heartbeat IPC: 4 cumulative IPC: 3.997 (Simulation time: 00 hr 49 min 15 sec)
Warmup finished CPU 3 instructions: 50000002 cycles: 12508105 cumulative IPC: 3.997 (Simulation time: 00 hr 49 min 15 sec)
Heartbeat CPU 2 instructions: 50000003 cycles: 12508181 heartbeat IPC: 4 cumulative IPC: 3.997 (Simulation time: 00 hr 49 min 15 sec)
Heartbeat CPU 6 instructions: 50000001 cycles: 12508181 heartbeat IPC: 4 cumulative IPC: 3.997 (Simulation time: 00 hr 49 min 15 sec)
Warmup finished CPU 6 instructions: 50000001 cycles: 12508181 cumulative IPC: 3.997 (Simulation time: 00 hr 49 min 15 sec)
Warmup finished CPU 2 instructions: 50000003 cycles: 12508181 cumulative IPC: 3.997 (Simulation time: 00 hr 49 min 15 sec)
Heartbeat CPU 7 instructions: 50000002 cycles: 12508302 heartbeat IPC: 4 cumulative IPC: 3.997 (Simulation time: 00 hr 49 min 15 sec)
Warmup finished CPU 7 instructions: 50000002 cycles: 12508302 cumulative IPC: 3.997 (Simulation time: 00 hr 49 min 15 sec)
Heartbeat CPU 4 instructions: 20000005 cycles: 13856083 heartbeat IPC: 0.9194 cumulative IPC: 1.443 (Simulation time: 00 hr 54 min 11 sec)
Heartbeat CPU 0 instructions: 20000000 cycles: 13856220 heartbeat IPC: 0.9194 cumulative IPC: 1.443 (Simulation time: 00 hr 54 min 11 sec)
Heartbeat CPU 3 instructions: 60000002 cycles: 15008105 heartbeat IPC: 4 cumulative IPC: 3.998 (Simulation time: 00 hr 58 min 20 sec)
Heartbeat CPU 2 instructions: 60000003 cycles: 15008181 heartbeat IPC: 4 cumulative IPC: 3.998 (Simulation time: 00 hr 58 min 20 sec)
Heartbeat CPU 6 instructions: 60000001 cycles: 15008181 heartbeat IPC: 4 cumulative IPC: 3.998 (Simulation time: 00 hr 58 min 20 sec)
Heartbeat CPU 7 instructions: 60000002 cycles: 15008302 heartbeat IPC: 4 cumulative IPC: 3.998 (Simulation time: 00 hr 58 min 20 sec)
Heartbeat CPU 1 instructions: 40000006 cycles: 15149949 heartbeat IPC: 2.707 cumulative IPC: 2.64 (Simulation time: 00 hr 58 min 51 sec)
Heartbeat CPU 5 instructions: 40000006 cycles: 15198021 heartbeat IPC: 2.696 cumulative IPC: 2.632 (Simulation time: 00 hr 59 min 01 sec)
Heartbeat CPU 3 instructions: 70000002 cycles: 17508105 heartbeat IPC: 4 cumulative IPC: 3.998 (Simulation time: 01 hr 07 min 50 sec)
Heartbeat CPU 2 instructions: 70000003 cycles: 17508181 heartbeat IPC: 4 cumulative IPC: 3.998 (Simulation time: 01 hr 07 min 50 sec)
Heartbeat CPU 6 instructions: 70000001 cycles: 17508181 heartbeat IPC: 4 cumulative IPC: 3.998 (Simulation time: 01 hr 07 min 50 sec)
Heartbeat CPU 7 instructions: 70000002 cycles: 17508302 heartbeat IPC: 4 cumulative IPC: 3.998 (Simulation time: 01 hr 07 min 50 sec)
Warmup finished CPU 1 instructions: 50000003 cycles: 18865188 cumulative IPC: 2.65 (Simulation time: 01 hr 12 min 54 sec)
Heartbeat CPU 1 instructions: 50000007 cycles: 18865189 heartbeat IPC: 2.692 cumulative IPC: 2.65 (Simulation time: 01 hr 12 min 54 sec)
Warmup finished CPU 5 instructions: 50000003 cycles: 18928305 cumulative IPC: 2.642 (Simulation time: 01 hr 13 min 09 sec)
Heartbeat CPU 5 instructions: 50000007 cycles: 18928306 heartbeat IPC: 2.681 cumulative IPC: 2.642 (Simulation time: 01 hr 13 min 09 sec)
Heartbeat CPU 3 instructions: 80000002 cycles: 20008105 heartbeat IPC: 4 cumulative IPC: 3.998 (Simulation time: 01 hr 17 min 24 sec)
Heartbeat CPU 2 instructions: 80000003 cycles: 20008181 heartbeat IPC: 4 cumulative IPC: 3.998 (Simulation time: 01 hr 17 min 24 sec)
Heartbeat CPU 6 instructions: 80000001 cycles: 20008181 heartbeat IPC: 4 cumulative IPC: 3.998 (Simulation time: 01 hr 17 min 24 sec)
Heartbeat CPU 7 instructions: 80000002 cycles: 20008302 heartbeat IPC: 4 cumulative IPC: 3.998 (Simulation time: 01 hr 17 min 24 sec)
Heartbeat CPU 1 instructions: 60000010 cycles: 22484280 heartbeat IPC: 2.763 cumulative IPC: 2.669 (Simulation time: 01 hr 27 min 00 sec)
Heartbeat CPU 3 instructions: 90000002 cycles: 22508105 heartbeat IPC: 4 cumulative IPC: 3.999 (Simulation time: 01 hr 27 min 05 sec)
Heartbeat CPU 2 instructions: 90000003 cycles: 22508181 heartbeat IPC: 4 cumulative IPC: 3.999 (Simulation time: 01 hr 27 min 05 sec)
Heartbeat CPU 6 instructions: 90000001 cycles: 22508181 heartbeat IPC: 4 cumulative IPC: 3.999 (Simulation time: 01 hr 27 min 05 sec)
Heartbeat CPU 7 instructions: 90000002 cycles: 22508302 heartbeat IPC: 4 cumulative IPC: 3.999 (Simulation time: 01 hr 27 min 05 sec)
Heartbeat CPU 5 instructions: 60000010 cycles: 22563222 heartbeat IPC: 2.751 cumulative IPC: 2.659 (Simulation time: 01 hr 27 min 18 sec)
Heartbeat CPU 3 instructions: 100000002 cycles: 25008105 heartbeat IPC: 4 cumulative IPC: 3.999 (Simulation time: 01 hr 36 min 36 sec)
Heartbeat CPU 2 instructions: 100000003 cycles: 25008181 heartbeat IPC: 4 cumulative IPC: 3.999 (Simulation time: 01 hr 36 min 37 sec)
Heartbeat CPU 6 instructions: 100000001 cycles: 25008181 heartbeat IPC: 4 cumulative IPC: 3.999 (Simulation time: 01 hr 36 min 37 sec)
Heartbeat CPU 7 instructions: 100000002 cycles: 25008302 heartbeat IPC: 4 cumulative IPC: 3.999 (Simulation time: 01 hr 36 min 37 sec)
Heartbeat CPU 1 instructions: 70000012 cycles: 26176000 heartbeat IPC: 2.709 cumulative IPC: 2.674 (Simulation time: 01 hr 41 min 05 sec)
Heartbeat CPU 5 instructions: 70000012 cycles: 26269946 heartbeat IPC: 2.698 cumulative IPC: 2.665 (Simulation time: 01 hr 41 min 27 sec)
Heartbeat CPU 3 instructions: 110000002 cycles: 27508105 heartbeat IPC: 4 cumulative IPC: 3.999 (Simulation time: 01 hr 46 min 02 sec)
Heartbeat CPU 2 instructions: 110000003 cycles: 27508181 heartbeat IPC: 4 cumulative IPC: 3.999 (Simulation time: 01 hr 46 min 02 sec)
Heartbeat CPU 6 instructions: 110000001 cycles: 27508181 heartbeat IPC: 4 cumulative IPC: 3.999 (Simulation time: 01 hr 46 min 02 sec)
Heartbeat CPU 7 instructions: 110000002 cycles: 27508302 heartbeat IPC: 4 cumulative IPC: 3.999 (Simulation time: 01 hr 46 min 02 sec)
Heartbeat CPU 0 instructions: 30000000 cycles: 28996986 heartbeat IPC: 0.6605 cumulative IPC: 1.035 (Simulation time: 01 hr 51 min 37 sec)
Heartbeat CPU 4 instructions: 30000005 cycles: 28997013 heartbeat IPC: 0.6605 cumulative IPC: 1.035 (Simulation time: 01 hr 51 min 37 sec)
Heartbeat CPU 1 instructions: 80000012 cycles: 29861682 heartbeat IPC: 2.713 cumulative IPC: 2.679 (Simulation time: 01 hr 54 min 54 sec)
Heartbeat CPU 5 instructions: 80000012 cycles: 29971057 heartbeat IPC: 2.702 cumulative IPC: 2.669 (Simulation time: 01 hr 55 min 18 sec)
Heartbeat CPU 3 instructions: 120000002 cycles: 30008105 heartbeat IPC: 4 cumulative IPC: 3.999 (Simulation time: 01 hr 55 min 27 sec)
Heartbeat CPU 2 instructions: 120000003 cycles: 30008181 heartbeat IPC: 4 cumulative IPC: 3.999 (Simulation time: 01 hr 55 min 27 sec)
Heartbeat CPU 6 instructions: 120000001 cycles: 30008181 heartbeat IPC: 4 cumulative IPC: 3.999 (Simulation time: 01 hr 55 min 27 sec)
Heartbeat CPU 7 instructions: 120000002 cycles: 30008302 heartbeat IPC: 4 cumulative IPC: 3.999 (Simulation time: 01 hr 55 min 27 sec)
Heartbeat CPU 3 instructions: 130000002 cycles: 32508105 heartbeat IPC: 4 cumulative IPC: 3.999 (Simulation time: 02 hr 04 min 39 sec)
Heartbeat CPU 2 instructions: 130000003 cycles: 32508181 heartbeat IPC: 4 cumulative IPC: 3.999 (Simulation time: 02 hr 04 min 39 sec)
Heartbeat CPU 6 instructions: 130000001 cycles: 32508181 heartbeat IPC: 4 cumulative IPC: 3.999 (Simulation time: 02 hr 04 min 39 sec)
Heartbeat CPU 7 instructions: 130000002 cycles: 32508302 heartbeat IPC: 4 cumulative IPC: 3.999 (Simulation time: 02 hr 04 min 39 sec)
Heartbeat CPU 1 instructions: 90000015 cycles: 33521426 heartbeat IPC: 2.732 cumulative IPC: 2.685 (Simulation time: 02 hr 08 min 16 sec)
Heartbeat CPU 5 instructions: 90000015 cycles: 33645641 heartbeat IPC: 2.721 cumulative IPC: 2.675 (Simulation time: 02 hr 08 min 44 sec)
Heartbeat CPU 3 instructions: 140000002 cycles: 35008105 heartbeat IPC: 4 cumulative IPC: 3.999 (Simulation time: 02 hr 13 min 52 sec)
Heartbeat CPU 2 instructions: 140000003 cycles: 35008181 heartbeat IPC: 4 cumulative IPC: 3.999 (Simulation time: 02 hr 13 min 52 sec)
Heartbeat CPU 6 instructions: 140000001 cycles: 35008181 heartbeat IPC: 4 cumulative IPC: 3.999 (Simulation time: 02 hr 13 min 52 sec)
Heartbeat CPU 7 instructions: 140000002 cycles: 35008302 heartbeat IPC: 4 cumulative IPC: 3.999 (Simulation time: 02 hr 13 min 52 sec)
Heartbeat CPU 1 instructions: 100000016 cycles: 37193190 heartbeat IPC: 2.723 cumulative IPC: 2.689 (Simulation time: 02 hr 22 min 04 sec)
Heartbeat CPU 5 instructions: 100000016 cycles: 37332513 heartbeat IPC: 2.712 cumulative IPC: 2.679 (Simulation time: 02 hr 22 min 36 sec)
Heartbeat CPU 3 instructions: 150000002 cycles: 37508105 heartbeat IPC: 4 cumulative IPC: 3.999 (Simulation time: 02 hr 23 min 16 sec)
Heartbeat CPU 2 instructions: 150000003 cycles: 37508181 heartbeat IPC: 4 cumulative IPC: 3.999 (Simulation time: 02 hr 23 min 16 sec)
Heartbeat CPU 6 instructions: 150000001 cycles: 37508181 heartbeat IPC: 4 cumulative IPC: 3.999 (Simulation time: 02 hr 23 min 16 sec)
Heartbeat CPU 7 instructions: 150000002 cycles: 37508302 heartbeat IPC: 4 cumulative IPC: 3.999 (Simulation time: 02 hr 23 min 16 sec)
Heartbeat CPU 3 instructions: 160000002 cycles: 40008105 heartbeat IPC: 4 cumulative IPC: 3.999 (Simulation time: 02 hr 32 min 48 sec)
Heartbeat CPU 2 instructions: 160000003 cycles: 40008181 heartbeat IPC: 4 cumulative IPC: 3.999 (Simulation time: 02 hr 32 min 48 sec)
Heartbeat CPU 6 instructions: 160000001 cycles: 40008181 heartbeat IPC: 4 cumulative IPC: 3.999 (Simulation time: 02 hr 32 min 48 sec)
Heartbeat CPU 7 instructions: 160000002 cycles: 40008302 heartbeat IPC: 4 cumulative IPC: 3.999 (Simulation time: 02 hr 32 min 48 sec)
Heartbeat CPU 1 instructions: 110000016 cycles: 40861917 heartbeat IPC: 2.726 cumulative IPC: 2.692 (Simulation time: 02 hr 36 min 00 sec)
Heartbeat CPU 5 instructions: 110000016 cycles: 41016467 heartbeat IPC: 2.714 cumulative IPC: 2.682 (Simulation time: 02 hr 36 min 35 sec)
Heartbeat CPU 3 instructions: 170000002 cycles: 42508105 heartbeat IPC: 4 cumulative IPC: 3.999 (Simulation time: 02 hr 42 min 05 sec)
Heartbeat CPU 2 instructions: 170000003 cycles: 42508181 heartbeat IPC: 4 cumulative IPC: 3.999 (Simulation time: 02 hr 42 min 05 sec)
Heartbeat CPU 6 instructions: 170000001 cycles: 42508181 heartbeat IPC: 4 cumulative IPC: 3.999 (Simulation time: 02 hr 42 min 05 sec)
Heartbeat CPU 7 instructions: 170000002 cycles: 42508302 heartbeat IPC: 4 cumulative IPC: 3.999 (Simulation time: 02 hr 42 min 05 sec)
Heartbeat CPU 4 instructions: 40000005 cycles: 44450126 heartbeat IPC: 0.6471 cumulative IPC: 0.8999 (Simulation time: 02 hr 49 min 21 sec)
Heartbeat CPU 0 instructions: 40000000 cycles: 44450285 heartbeat IPC: 0.6471 cumulative IPC: 0.8999 (Simulation time: 02 hr 49 min 21 sec)
Heartbeat CPU 1 instructions: 120000018 cycles: 44588510 heartbeat IPC: 2.683 cumulative IPC: 2.691 (Simulation time: 02 hr 49 min 53 sec)
Heartbeat CPU 5 instructions: 120000018 cycles: 44757730 heartbeat IPC: 2.673 cumulative IPC: 2.681 (Simulation time: 02 hr 50 min 31 sec)
Heartbeat CPU 3 instructions: 180000002 cycles: 45008105 heartbeat IPC: 4 cumulative IPC: 3.999 (Simulation time: 02 hr 51 min 27 sec)
Heartbeat CPU 2 instructions: 180000003 cycles: 45008181 heartbeat IPC: 4 cumulative IPC: 3.999 (Simulation time: 02 hr 51 min 27 sec)
Heartbeat CPU 6 instructions: 180000001 cycles: 45008181 heartbeat IPC: 4 cumulative IPC: 3.999 (Simulation time: 02 hr 51 min 27 sec)
Heartbeat CPU 7 instructions: 180000002 cycles: 45008302 heartbeat IPC: 4 cumulative IPC: 3.999 (Simulation time: 02 hr 51 min 27 sec)
Heartbeat CPU 3 instructions: 190000002 cycles: 47508105 heartbeat IPC: 4 cumulative IPC: 3.999 (Simulation time: 03 hr 00 min 36 sec)
Heartbeat CPU 2 instructions: 190000003 cycles: 47508181 heartbeat IPC: 4 cumulative IPC: 3.999 (Simulation time: 03 hr 00 min 36 sec)
Heartbeat CPU 6 instructions: 190000001 cycles: 47508181 heartbeat IPC: 4 cumulative IPC: 3.999 (Simulation time: 03 hr 00 min 36 sec)
Heartbeat CPU 7 instructions: 190000002 cycles: 47508302 heartbeat IPC: 4 cumulative IPC: 3.999 (Simulation time: 03 hr 00 min 36 sec)
Heartbeat CPU 1 instructions: 130000020 cycles: 48278189 heartbeat IPC: 2.71 cumulative IPC: 2.693 (Simulation time: 03 hr 03 min 29 sec)
Heartbeat CPU 5 instructions: 130000020 cycles: 48462548 heartbeat IPC: 2.699 cumulative IPC: 2.682 (Simulation time: 03 hr 04 min 11 sec)
Heartbeat CPU 3 instructions: 200000002 cycles: 50008105 heartbeat IPC: 4 cumulative IPC: 3.999 (Simulation time: 03 hr 09 min 54 sec)
Heartbeat CPU 2 instructions: 200000003 cycles: 50008181 heartbeat IPC: 4 cumulative IPC: 3.999 (Simulation time: 03 hr 09 min 54 sec)
Heartbeat CPU 6 instructions: 200000001 cycles: 50008181 heartbeat IPC: 4 cumulative IPC: 3.999 (Simulation time: 03 hr 09 min 54 sec)
Heartbeat CPU 7 instructions: 200000002 cycles: 50008302 heartbeat IPC: 4 cumulative IPC: 3.999 (Simulation time: 03 hr 09 min 54 sec)
Heartbeat CPU 1 instructions: 140000020 cycles: 51845980 heartbeat IPC: 2.803 cumulative IPC: 2.7 (Simulation time: 03 hr 16 min 33 sec)
Heartbeat CPU 5 instructions: 140000020 cycles: 52045356 heartbeat IPC: 2.791 cumulative IPC: 2.69 (Simulation time: 03 hr 17 min 17 sec)
Heartbeat CPU 3 instructions: 210000002 cycles: 52508105 heartbeat IPC: 4 cumulative IPC: 3.999 (Simulation time: 03 hr 18 min 59 sec)
Heartbeat CPU 2 instructions: 210000003 cycles: 52508181 heartbeat IPC: 4 cumulative IPC: 3.999 (Simulation time: 03 hr 18 min 59 sec)
Heartbeat CPU 6 instructions: 210000001 cycles: 52508181 heartbeat IPC: 4 cumulative IPC: 3.999 (Simulation time: 03 hr 18 min 59 sec)
Heartbeat CPU 7 instructions: 210000002 cycles: 52508302 heartbeat IPC: 4 cumulative IPC: 3.999 (Simulation time: 03 hr 18 min 59 sec)
Heartbeat CPU 3 instructions: 220000002 cycles: 55008105 heartbeat IPC: 4 cumulative IPC: 3.999 (Simulation time: 03 hr 28 min 07 sec)
Heartbeat CPU 2 instructions: 220000003 cycles: 55008181 heartbeat IPC: 4 cumulative IPC: 3.999 (Simulation time: 03 hr 28 min 07 sec)
Heartbeat CPU 6 instructions: 220000001 cycles: 55008181 heartbeat IPC: 4 cumulative IPC: 3.999 (Simulation time: 03 hr 28 min 07 sec)
Heartbeat CPU 7 instructions: 220000002 cycles: 55008302 heartbeat IPC: 4 cumulative IPC: 3.999 (Simulation time: 03 hr 28 min 07 sec)
Heartbeat CPU 1 instructions: 150000023 cycles: 55805280 heartbeat IPC: 2.526 cumulative IPC: 2.688 (Simulation time: 03 hr 31 min 03 sec)
Heartbeat CPU 5 instructions: 150000023 cycles: 56003759 heartbeat IPC: 2.526 cumulative IPC: 2.678 (Simulation time: 03 hr 31 min 51 sec)
Heartbeat CPU 3 instructions: 230000002 cycles: 57508105 heartbeat IPC: 4 cumulative IPC: 3.999 (Simulation time: 03 hr 36 min 49 sec)
Heartbeat CPU 2 instructions: 230000003 cycles: 57508181 heartbeat IPC: 4 cumulative IPC: 3.999 (Simulation time: 03 hr 36 min 49 sec)
Heartbeat CPU 6 instructions: 230000001 cycles: 57508181 heartbeat IPC: 4 cumulative IPC: 3.999 (Simulation time: 03 hr 36 min 49 sec)
Heartbeat CPU 7 instructions: 230000002 cycles: 57508302 heartbeat IPC: 4 cumulative IPC: 3.999 (Simulation time: 03 hr 36 min 49 sec)
Heartbeat CPU 1 instructions: 160000023 cycles: 59638257 heartbeat IPC: 2.609 cumulative IPC: 2.683 (Simulation time: 03 hr 44 min 51 sec)
Heartbeat CPU 5 instructions: 160000023 cycles: 59852163 heartbeat IPC: 2.598 cumulative IPC: 2.673 (Simulation time: 03 hr 45 min 39 sec)
Heartbeat CPU 3 instructions: 240000002 cycles: 60008105 heartbeat IPC: 4 cumulative IPC: 3.999 (Simulation time: 03 hr 46 min 16 sec)
Heartbeat CPU 2 instructions: 240000003 cycles: 60008181 heartbeat IPC: 4 cumulative IPC: 3.999 (Simulation time: 03 hr 46 min 16 sec)
Heartbeat CPU 6 instructions: 240000001 cycles: 60008181 heartbeat IPC: 4 cumulative IPC: 3.999 (Simulation time: 03 hr 46 min 16 sec)
Heartbeat CPU 7 instructions: 240000002 cycles: 60008302 heartbeat IPC: 4 cumulative IPC: 3.999 (Simulation time: 03 hr 46 min 16 sec)
Warmup finished CPU 4 instructions: 50000000 cycles: 60119279 cumulative IPC: 0.8317 (Simulation time: 03 hr 46 min 42 sec)
Heartbeat CPU 4 instructions: 50000005 cycles: 60119290 heartbeat IPC: 0.6382 cumulative IPC: 0.8317 (Simulation time: 03 hr 46 min 42 sec)
Heartbeat CPU 0 instructions: 50000000 cycles: 60119343 heartbeat IPC: 0.6382 cumulative IPC: 0.8317 (Simulation time: 03 hr 46 min 42 sec)
Warmup finished CPU 0 instructions: 50000000 cycles: 60119343 cumulative IPC: 0.8317 (Simulation time: 03 hr 46 min 42 sec)
Warmup complete CPU 7 instructions: 240444166 cycles: 60119343 cumulative IPC: 3.999 (Simulation time: 03 hr 46 min 42 sec)
Warmup complete CPU 6 instructions: 240444649 cycles: 60119343 cumulative IPC: 3.999 (Simulation time: 03 hr 46 min 42 sec)
Warmup complete CPU 5 instructions: 160725091 cycles: 60119343 cumulative IPC: 2.673 (Simulation time: 03 hr 46 min 42 sec)
Warmup complete CPU 4 instructions: 50000050 cycles: 60119343 cumulative IPC: 0.8317 (Simulation time: 03 hr 46 min 42 sec)
Warmup complete CPU 3 instructions: 240444954 cycles: 60119343 cumulative IPC: 3.999 (Simulation time: 03 hr 46 min 42 sec)
Warmup complete CPU 2 instructions: 240444651 cycles: 60119343 cumulative IPC: 3.999 (Simulation time: 03 hr 46 min 42 sec)
Warmup complete CPU 1 instructions: 161316966 cycles: 60119343 cumulative IPC: 2.683 (Simulation time: 03 hr 46 min 42 sec)
Warmup complete CPU 0 instructions: 50000000 cycles: 60119343 cumulative IPC: 0.8317 (Simulation time: 03 hr 46 min 42 sec)
Heartbeat CPU 3 instructions: 250000002 cycles: 62508105 heartbeat IPC: 4 cumulative IPC: 4 (Simulation time: 03 hr 55 min 44 sec)
Heartbeat CPU 2 instructions: 250000003 cycles: 62508181 heartbeat IPC: 4 cumulative IPC: 4 (Simulation time: 03 hr 55 min 44 sec)
Heartbeat CPU 6 instructions: 250000001 cycles: 62508181 heartbeat IPC: 4 cumulative IPC: 4 (Simulation time: 03 hr 55 min 44 sec)
Heartbeat CPU 7 instructions: 250000002 cycles: 62508302 heartbeat IPC: 4 cumulative IPC: 4 (Simulation time: 03 hr 55 min 44 sec)
Heartbeat CPU 1 instructions: 170000026 cycles: 64545989 heartbeat IPC: 2.038 cumulative IPC: 1.962 (Simulation time: 04 hr 03 min 35 sec)
Heartbeat CPU 5 instructions: 170000026 cycles: 64546091 heartbeat IPC: 2.13 cumulative IPC: 2.095 (Simulation time: 04 hr 03 min 35 sec)
Heartbeat CPU 3 instructions: 260000002 cycles: 65008105 heartbeat IPC: 4 cumulative IPC: 4 (Simulation time: 04 hr 05 min 18 sec)
Heartbeat CPU 2 instructions: 260000003 cycles: 65008181 heartbeat IPC: 4 cumulative IPC: 4 (Simulation time: 04 hr 05 min 18 sec)
Heartbeat CPU 6 instructions: 260000001 cycles: 65008181 heartbeat IPC: 4 cumulative IPC: 4 (Simulation time: 04 hr 05 min 18 sec)
Heartbeat CPU 7 instructions: 260000002 cycles: 65008302 heartbeat IPC: 4 cumulative IPC: 4 (Simulation time: 04 hr 05 min 18 sec)
Heartbeat CPU 3 instructions: 270000002 cycles: 67508105 heartbeat IPC: 4 cumulative IPC: 4 (Simulation time: 04 hr 14 min 29 sec)
Heartbeat CPU 2 instructions: 270000003 cycles: 67508181 heartbeat IPC: 4 cumulative IPC: 4 (Simulation time: 04 hr 14 min 29 sec)
Heartbeat CPU 6 instructions: 270000001 cycles: 67508181 heartbeat IPC: 4 cumulative IPC: 4 (Simulation time: 04 hr 14 min 29 sec)
Heartbeat CPU 7 instructions: 270000002 cycles: 67508302 heartbeat IPC: 4 cumulative IPC: 4 (Simulation time: 04 hr 14 min 29 sec)
Heartbeat CPU 1 instructions: 180000028 cycles: 69403140 heartbeat IPC: 2.059 cumulative IPC: 2.012 (Simulation time: 04 hr 21 min 14 sec)
Heartbeat CPU 5 instructions: 180000028 cycles: 69403147 heartbeat IPC: 2.059 cumulative IPC: 2.076 (Simulation time: 04 hr 21 min 14 sec)
Heartbeat CPU 3 instructions: 280000002 cycles: 70008105 heartbeat IPC: 4 cumulative IPC: 4 (Simulation time: 04 hr 23 min 33 sec)
Heartbeat CPU 2 instructions: 280000003 cycles: 70008181 heartbeat IPC: 4 cumulative IPC: 4 (Simulation time: 04 hr 23 min 33 sec)
Heartbeat CPU 6 instructions: 280000001 cycles: 70008181 heartbeat IPC: 4 cumulative IPC: 4 (Simulation time: 04 hr 23 min 33 sec)
Heartbeat CPU 7 instructions: 280000002 cycles: 70008302 heartbeat IPC: 4 cumulative IPC: 4 (Simulation time: 04 hr 23 min 33 sec)
Heartbeat CPU 3 instructions: 290000002 cycles: 72508105 heartbeat IPC: 4 cumulative IPC: 4 (Simulation time: 04 hr 33 min 07 sec)
Heartbeat CPU 2 instructions: 290000003 cycles: 72508181 heartbeat IPC: 4 cumulative IPC: 4 (Simulation time: 04 hr 33 min 07 sec)
Heartbeat CPU 6 instructions: 290000001 cycles: 72508181 heartbeat IPC: 4 cumulative IPC: 4 (Simulation time: 04 hr 33 min 07 sec)
Heartbeat CPU 7 instructions: 290000002 cycles: 72508302 heartbeat IPC: 4 cumulative IPC: 4 (Simulation time: 04 hr 33 min 07 sec)
Heartbeat CPU 1 instructions: 190000028 cycles: 74134547 heartbeat IPC: 2.114 cumulative IPC: 2.047 (Simulation time: 04 hr 39 min 41 sec)
Heartbeat CPU 5 instructions: 190000028 cycles: 74134610 heartbeat IPC: 2.114 cumulative IPC: 2.089 (Simulation time: 04 hr 39 min 41 sec)
Heartbeat CPU 3 instructions: 300000002 cycles: 75008105 heartbeat IPC: 4 cumulative IPC: 4 (Simulation time: 04 hr 43 min 09 sec)
Heartbeat CPU 2 instructions: 300000003 cycles: 75008181 heartbeat IPC: 4 cumulative IPC: 4 (Simulation time: 04 hr 43 min 09 sec)
Heartbeat CPU 6 instructions: 300000001 cycles: 75008181 heartbeat IPC: 4 cumulative IPC: 4 (Simulation time: 04 hr 43 min 09 sec)
Heartbeat CPU 7 instructions: 300000002 cycles: 75008302 heartbeat IPC: 4 cumulative IPC: 4 (Simulation time: 04 hr 43 min 09 sec)
Heartbeat CPU 3 instructions: 310000002 cycles: 77508105 heartbeat IPC: 4 cumulative IPC: 4 (Simulation time: 04 hr 53 min 10 sec)
Heartbeat CPU 2 instructions: 310000003 cycles: 77508181 heartbeat IPC: 4 cumulative IPC: 4 (Simulation time: 04 hr 53 min 10 sec)
Heartbeat CPU 6 instructions: 310000001 cycles: 77508181 heartbeat IPC: 4 cumulative IPC: 4 (Simulation time: 04 hr 53 min 10 sec)
Heartbeat CPU 7 instructions: 310000002 cycles: 77508302 heartbeat IPC: 4 cumulative IPC: 4 (Simulation time: 04 hr 53 min 10 sec)
Heartbeat CPU 1 instructions: 200000028 cycles: 78797260 heartbeat IPC: 2.145 cumulative IPC: 2.071 (Simulation time: 04 hr 58 min 21 sec)
Heartbeat CPU 5 instructions: 200000028 cycles: 78797585 heartbeat IPC: 2.145 cumulative IPC: 2.103 (Simulation time: 04 hr 58 min 21 sec)
Heartbeat CPU 0 instructions: 60000004 cycles: 79304143 heartbeat IPC: 0.5212 cumulative IPC: 0.5212 (Simulation time: 05 hr 00 min 19 sec)
Heartbeat CPU 4 instructions: 60000005 cycles: 79304309 heartbeat IPC: 0.5212 cumulative IPC: 0.5212 (Simulation time: 05 hr 00 min 19 sec)
Heartbeat CPU 3 instructions: 320000002 cycles: 80008105 heartbeat IPC: 4 cumulative IPC: 4 (Simulation time: 05 hr 02 min 59 sec)
Heartbeat CPU 2 instructions: 320000003 cycles: 80008181 heartbeat IPC: 4 cumulative IPC: 4 (Simulation time: 05 hr 02 min 59 sec)
Heartbeat CPU 6 instructions: 320000001 cycles: 80008181 heartbeat IPC: 4 cumulative IPC: 4 (Simulation time: 05 hr 02 min 59 sec)
Heartbeat CPU 7 instructions: 320000002 cycles: 80008302 heartbeat IPC: 4 cumulative IPC: 4 (Simulation time: 05 hr 02 min 59 sec)
Heartbeat CPU 3 instructions: 330000002 cycles: 82508105 heartbeat IPC: 4 cumulative IPC: 4 (Simulation time: 05 hr 12 min 13 sec)
Heartbeat CPU 2 instructions: 330000003 cycles: 82508181 heartbeat IPC: 4 cumulative IPC: 4 (Simulation time: 05 hr 12 min 13 sec)
Heartbeat CPU 6 instructions: 330000001 cycles: 82508181 heartbeat IPC: 4 cumulative IPC: 4 (Simulation time: 05 hr 12 min 13 sec)
Heartbeat CPU 7 instructions: 330000002 cycles: 82508302 heartbeat IPC: 4 cumulative IPC: 4 (Simulation time: 05 hr 12 min 13 sec)
Heartbeat CPU 5 instructions: 210000031 cycles: 83615322 heartbeat IPC: 2.076 cumulative IPC: 2.097 (Simulation time: 05 hr 16 min 17 sec)
Heartbeat CPU 1 instructions: 210000031 cycles: 83615322 heartbeat IPC: 2.076 cumulative IPC: 2.072 (Simulation time: 05 hr 16 min 17 sec)
Heartbeat CPU 3 instructions: 340000002 cycles: 85008105 heartbeat IPC: 4 cumulative IPC: 4 (Simulation time: 05 hr 21 min 27 sec)
Heartbeat CPU 2 instructions: 340000003 cycles: 85008181 heartbeat IPC: 4 cumulative IPC: 4 (Simulation time: 05 hr 21 min 27 sec)
Heartbeat CPU 6 instructions: 340000001 cycles: 85008181 heartbeat IPC: 4 cumulative IPC: 4 (Simulation time: 05 hr 21 min 27 sec)
Heartbeat CPU 7 instructions: 340000002 cycles: 85008302 heartbeat IPC: 4 cumulative IPC: 4 (Simulation time: 05 hr 21 min 27 sec)
Simulation finished CPU 7 instructions: 100000000 cycles: 25000000 cumulative IPC: 4 (Simulation time: 05 hr 21 min 52 sec)
Simulation finished CPU 6 instructions: 100000000 cycles: 25000000 cumulative IPC: 4 (Simulation time: 05 hr 21 min 52 sec)
Simulation finished CPU 3 instructions: 100000000 cycles: 25000000 cumulative IPC: 4 (Simulation time: 05 hr 21 min 52 sec)
Simulation finished CPU 2 instructions: 100000000 cycles: 25000000 cumulative IPC: 4 (Simulation time: 05 hr 21 min 52 sec)
Heartbeat CPU 3 instructions: 350000002 cycles: 87508105 heartbeat IPC: 4 cumulative IPC: 4 (Simulation time: 05 hr 30 min 48 sec)
Heartbeat CPU 2 instructions: 350000003 cycles: 87508181 heartbeat IPC: 4 cumulative IPC: 4 (Simulation time: 05 hr 30 min 48 sec)
Heartbeat CPU 6 instructions: 350000001 cycles: 87508181 heartbeat IPC: 4 cumulative IPC: 4 (Simulation time: 05 hr 30 min 48 sec)
Heartbeat CPU 7 instructions: 350000002 cycles: 87508302 heartbeat IPC: 4 cumulative IPC: 4 (Simulation time: 05 hr 30 min 48 sec)
Heartbeat CPU 1 instructions: 220000031 cycles: 88581615 heartbeat IPC: 2.014 cumulative IPC: 2.062 (Simulation time: 05 hr 34 min 52 sec)
Heartbeat CPU 5 instructions: 220000031 cycles: 88581679 heartbeat IPC: 2.014 cumulative IPC: 2.083 (Simulation time: 05 hr 34 min 52 sec)
Heartbeat CPU 3 instructions: 360000002 cycles: 90008105 heartbeat IPC: 4 cumulative IPC: 4 (Simulation time: 05 hr 40 min 11 sec)
Heartbeat CPU 2 instructions: 360000003 cycles: 90008181 heartbeat IPC: 4 cumulative IPC: 4 (Simulation time: 05 hr 40 min 11 sec)
Heartbeat CPU 6 instructions: 360000001 cycles: 90008181 heartbeat IPC: 4 cumulative IPC: 4 (Simulation time: 05 hr 40 min 11 sec)
Heartbeat CPU 7 instructions: 360000002 cycles: 90008302 heartbeat IPC: 4 cumulative IPC: 4 (Simulation time: 05 hr 40 min 11 sec)
Heartbeat CPU 3 instructions: 370000002 cycles: 92508105 heartbeat IPC: 4 cumulative IPC: 4 (Simulation time: 05 hr 49 min 05 sec)
Heartbeat CPU 2 instructions: 370000003 cycles: 92508181 heartbeat IPC: 4 cumulative IPC: 4 (Simulation time: 05 hr 49 min 05 sec)
Heartbeat CPU 6 instructions: 370000001 cycles: 92508181 heartbeat IPC: 4 cumulative IPC: 4 (Simulation time: 05 hr 49 min 05 sec)
Heartbeat CPU 7 instructions: 370000002 cycles: 92508302 heartbeat IPC: 4 cumulative IPC: 4 (Simulation time: 05 hr 49 min 05 sec)
Heartbeat CPU 1 instructions: 230000032 cycles: 93464258 heartbeat IPC: 2.048 cumulative IPC: 2.06 (Simulation time: 05 hr 52 min 37 sec)
Heartbeat CPU 5 instructions: 230000034 cycles: 93464284 heartbeat IPC: 2.048 cumulative IPC: 2.078 (Simulation time: 05 hr 52 min 37 sec)
Heartbeat CPU 3 instructions: 380000002 cycles: 95008105 heartbeat IPC: 4 cumulative IPC: 4 (Simulation time: 05 hr 58 min 12 sec)
Heartbeat CPU 2 instructions: 380000003 cycles: 95008181 heartbeat IPC: 4 cumulative IPC: 4 (Simulation time: 05 hr 58 min 12 sec)
Heartbeat CPU 6 instructions: 380000001 cycles: 95008181 heartbeat IPC: 4 cumulative IPC: 4 (Simulation time: 05 hr 58 min 12 sec)
Heartbeat CPU 7 instructions: 380000002 cycles: 95008302 heartbeat IPC: 4 cumulative IPC: 4 (Simulation time: 05 hr 58 min 12 sec)
Heartbeat CPU 3 instructions: 390000002 cycles: 97508105 heartbeat IPC: 4 cumulative IPC: 4 (Simulation time: 06 hr 07 min 25 sec)
Heartbeat CPU 2 instructions: 390000003 cycles: 97508181 heartbeat IPC: 4 cumulative IPC: 4 (Simulation time: 06 hr 07 min 25 sec)
Heartbeat CPU 6 instructions: 390000001 cycles: 97508181 heartbeat IPC: 4 cumulative IPC: 4 (Simulation time: 06 hr 07 min 25 sec)
Heartbeat CPU 7 instructions: 390000002 cycles: 97508302 heartbeat IPC: 4 cumulative IPC: 4 (Simulation time: 06 hr 07 min 25 sec)
Heartbeat CPU 0 instructions: 70000007 cycles: 98265836 heartbeat IPC: 0.5274 cumulative IPC: 0.5243 (Simulation time: 06 hr 10 min 18 sec)
Heartbeat CPU 4 instructions: 70000007 cycles: 98265945 heartbeat IPC: 0.5274 cumulative IPC: 0.5243 (Simulation time: 06 hr 10 min 18 sec)
Heartbeat CPU 5 instructions: 240000035 cycles: 98349689 heartbeat IPC: 2.047 cumulative IPC: 2.074 (Simulation time: 06 hr 10 min 37 sec)
Heartbeat CPU 1 instructions: 240000033 cycles: 98349689 heartbeat IPC: 2.047 cumulative IPC: 2.058 (Simulation time: 06 hr 10 min 37 sec)
Heartbeat CPU 3 instructions: 400000002 cycles: 100008105 heartbeat IPC: 4 cumulative IPC: 4 (Simulation time: 06 hr 16 min 50 sec)
Heartbeat CPU 2 instructions: 400000003 cycles: 100008181 heartbeat IPC: 4 cumulative IPC: 4 (Simulation time: 06 hr 16 min 50 sec)
Heartbeat CPU 6 instructions: 400000001 cycles: 100008181 heartbeat IPC: 4 cumulative IPC: 4 (Simulation time: 06 hr 16 min 50 sec)
Heartbeat CPU 7 instructions: 400000002 cycles: 100008302 heartbeat IPC: 4 cumulative IPC: 4 (Simulation time: 06 hr 16 min 50 sec)
Heartbeat CPU 3 instructions: 410000004 cycles: 102508175 heartbeat IPC: 4 cumulative IPC: 4 (Simulation time: 06 hr 26 min 23 sec)
Heartbeat CPU 2 instructions: 410000003 cycles: 102508181 heartbeat IPC: 4 cumulative IPC: 4 (Simulation time: 06 hr 26 min 23 sec)
Heartbeat CPU 6 instructions: 410000001 cycles: 102508181 heartbeat IPC: 4 cumulative IPC: 4 (Simulation time: 06 hr 26 min 23 sec)
Heartbeat CPU 7 instructions: 410000002 cycles: 102508302 heartbeat IPC: 4 cumulative IPC: 4 (Simulation time: 06 hr 26 min 23 sec)
Heartbeat CPU 1 instructions: 250000035 cycles: 103347643 heartbeat IPC: 2.001 cumulative IPC: 2.052 (Simulation time: 06 hr 29 min 37 sec)
Heartbeat CPU 5 instructions: 250000035 cycles: 103347917 heartbeat IPC: 2.001 cumulative IPC: 2.065 (Simulation time: 06 hr 29 min 37 sec)
Heartbeat CPU 3 instructions: 420000004 cycles: 105008175 heartbeat IPC: 4 cumulative IPC: 4 (Simulation time: 06 hr 36 min 09 sec)
Heartbeat CPU 6 instructions: 420000004 cycles: 105008243 heartbeat IPC: 4 cumulative IPC: 4 (Simulation time: 06 hr 36 min 09 sec)
Heartbeat CPU 2 instructions: 420000004 cycles: 105008249 heartbeat IPC: 4 cumulative IPC: 4 (Simulation time: 06 hr 36 min 09 sec)
Heartbeat CPU 7 instructions: 420000002 cycles: 105008302 heartbeat IPC: 4 cumulative IPC: 4 (Simulation time: 06 hr 36 min 09 sec)
Heartbeat CPU 3 instructions: 430000004 cycles: 107508175 heartbeat IPC: 4 cumulative IPC: 4 (Simulation time: 06 hr 45 min 29 sec)
Heartbeat CPU 6 instructions: 430000004 cycles: 107508243 heartbeat IPC: 4 cumulative IPC: 4 (Simulation time: 06 hr 45 min 29 sec)
Heartbeat CPU 2 instructions: 430000004 cycles: 107508249 heartbeat IPC: 4 cumulative IPC: 4 (Simulation time: 06 hr 45 min 29 sec)
Heartbeat CPU 7 instructions: 430000002 cycles: 107508302 heartbeat IPC: 4 cumulative IPC: 4 (Simulation time: 06 hr 45 min 29 sec)
Heartbeat CPU 1 instructions: 260000038 cycles: 108368985 heartbeat IPC: 1.992 cumulative IPC: 2.045 (Simulation time: 06 hr 48 min 43 sec)
Heartbeat CPU 5 instructions: 260000038 cycles: 108368992 heartbeat IPC: 1.992 cumulative IPC: 2.058 (Simulation time: 06 hr 48 min 43 sec)
Simulation finished CPU 5 instructions: 100000000 cycles: 48647772 cumulative IPC: 2.056 (Simulation time: 06 hr 50 min 10 sec)
Simulation finished CPU 1 instructions: 100000001 cycles: 48936887 cumulative IPC: 2.043 (Simulation time: 06 hr 51 min 10 sec)
Heartbeat CPU 3 instructions: 440000004 cycles: 110008175 heartbeat IPC: 4 cumulative IPC: 4 (Simulation time: 06 hr 54 min 35 sec)
Heartbeat CPU 6 instructions: 440000004 cycles: 110008243 heartbeat IPC: 4 cumulative IPC: 4 (Simulation time: 06 hr 54 min 35 sec)
Heartbeat CPU 2 instructions: 440000004 cycles: 110008249 heartbeat IPC: 4 cumulative IPC: 4 (Simulation time: 06 hr 54 min 35 sec)
Heartbeat CPU 7 instructions: 440000002 cycles: 110008302 heartbeat IPC: 4 cumulative IPC: 4 (Simulation time: 06 hr 54 min 35 sec)
Heartbeat CPU 3 instructions: 450000004 cycles: 112508175 heartbeat IPC: 4 cumulative IPC: 4 (Simulation time: 07 hr 03 min 43 sec)
Heartbeat CPU 6 instructions: 450000004 cycles: 112508243 heartbeat IPC: 4 cumulative IPC: 4 (Simulation time: 07 hr 03 min 44 sec)
Heartbeat CPU 2 instructions: 450000004 cycles: 112508249 heartbeat IPC: 4 cumulative IPC: 4 (Simulation time: 07 hr 03 min 44 sec)
Heartbeat CPU 7 instructions: 450000002 cycles: 112508302 heartbeat IPC: 4 cumulative IPC: 4 (Simulation time: 07 hr 03 min 44 sec)
Heartbeat CPU 1 instructions: 270000040 cycles: 113382594 heartbeat IPC: 1.995 cumulative IPC: 2.04 (Simulation time: 07 hr 06 min 56 sec)
Heartbeat CPU 5 instructions: 270000038 cycles: 113382703 heartbeat IPC: 1.995 cumulative IPC: 2.052 (Simulation time: 07 hr 06 min 56 sec)
Heartbeat CPU 3 instructions: 460000004 cycles: 115008175 heartbeat IPC: 4 cumulative IPC: 4 (Simulation time: 07 hr 12 min 54 sec)
Heartbeat CPU 6 instructions: 460000004 cycles: 115008243 heartbeat IPC: 4 cumulative IPC: 4 (Simulation time: 07 hr 12 min 54 sec)
Heartbeat CPU 2 instructions: 460000004 cycles: 115008249 heartbeat IPC: 4 cumulative IPC: 4 (Simulation time: 07 hr 12 min 54 sec)
Heartbeat CPU 7 instructions: 460000002 cycles: 115008302 heartbeat IPC: 4 cumulative IPC: 4 (Simulation time: 07 hr 12 min 54 sec)
Heartbeat CPU 0 instructions: 80000009 cycles: 116643455 heartbeat IPC: 0.5441 cumulative IPC: 0.5307 (Simulation time: 07 hr 19 min 01 sec)
Heartbeat CPU 4 instructions: 80000009 cycles: 116643553 heartbeat IPC: 0.5441 cumulative IPC: 0.5307 (Simulation time: 07 hr 19 min 01 sec)
Heartbeat CPU 3 instructions: 470000004 cycles: 117508175 heartbeat IPC: 4 cumulative IPC: 4 (Simulation time: 07 hr 22 min 06 sec)
Heartbeat CPU 6 instructions: 470000004 cycles: 117508243 heartbeat IPC: 4 cumulative IPC: 4 (Simulation time: 07 hr 22 min 06 sec)
Heartbeat CPU 2 instructions: 470000004 cycles: 117508249 heartbeat IPC: 4 cumulative IPC: 4 (Simulation time: 07 hr 22 min 06 sec)
Heartbeat CPU 7 instructions: 470000002 cycles: 117508302 heartbeat IPC: 4 cumulative IPC: 4 (Simulation time: 07 hr 22 min 06 sec)
Heartbeat CPU 1 instructions: 280000042 cycles: 119657786 heartbeat IPC: 1.594 cumulative IPC: 1.993 (Simulation time: 07 hr 29 min 56 sec)
Heartbeat CPU 5 instructions: 280000038 cycles: 119657835 heartbeat IPC: 1.594 cumulative IPC: 2.003 (Simulation time: 07 hr 29 min 56 sec)
Heartbeat CPU 3 instructions: 480000004 cycles: 120008175 heartbeat IPC: 4 cumulative IPC: 4 (Simulation time: 07 hr 31 min 13 sec)
Heartbeat CPU 6 instructions: 480000004 cycles: 120008243 heartbeat IPC: 4 cumulative IPC: 4 (Simulation time: 07 hr 31 min 13 sec)
Heartbeat CPU 2 instructions: 480000004 cycles: 120008249 heartbeat IPC: 4 cumulative IPC: 4 (Simulation time: 07 hr 31 min 13 sec)
Heartbeat CPU 7 instructions: 480000002 cycles: 120008302 heartbeat IPC: 4 cumulative IPC: 4 (Simulation time: 07 hr 31 min 13 sec)
Heartbeat CPU 3 instructions: 490000004 cycles: 122508175 heartbeat IPC: 4 cumulative IPC: 4 (Simulation time: 07 hr 40 min 14 sec)
Heartbeat CPU 6 instructions: 490000004 cycles: 122508243 heartbeat IPC: 4 cumulative IPC: 4 (Simulation time: 07 hr 40 min 14 sec)
Heartbeat CPU 2 instructions: 490000004 cycles: 122508249 heartbeat IPC: 4 cumulative IPC: 4 (Simulation time: 07 hr 40 min 14 sec)
Heartbeat CPU 7 instructions: 490000002 cycles: 122508302 heartbeat IPC: 4 cumulative IPC: 4 (Simulation time: 07 hr 40 min 14 sec)
Heartbeat CPU 3 instructions: 500000004 cycles: 125008175 heartbeat IPC: 4 cumulative IPC: 4 (Simulation time: 07 hr 49 min 22 sec)
Heartbeat CPU 6 instructions: 500000004 cycles: 125008243 heartbeat IPC: 4 cumulative IPC: 4 (Simulation time: 07 hr 49 min 22 sec)
Heartbeat CPU 2 instructions: 500000004 cycles: 125008249 heartbeat IPC: 4 cumulative IPC: 4 (Simulation time: 07 hr 49 min 22 sec)
Heartbeat CPU 7 instructions: 500000002 cycles: 125008302 heartbeat IPC: 4 cumulative IPC: 4 (Simulation time: 07 hr 49 min 22 sec)
Heartbeat CPU 1 instructions: 290000042 cycles: 126432217 heartbeat IPC: 1.476 cumulative IPC: 1.941 (Simulation time: 07 hr 54 min 37 sec)
Heartbeat CPU 5 instructions: 290000038 cycles: 126432373 heartbeat IPC: 1.476 cumulative IPC: 1.949 (Simulation time: 07 hr 54 min 37 sec)
Heartbeat CPU 3 instructions: 510000004 cycles: 127508175 heartbeat IPC: 4 cumulative IPC: 4 (Simulation time: 07 hr 58 min 37 sec)
Heartbeat CPU 6 instructions: 510000004 cycles: 127508243 heartbeat IPC: 4 cumulative IPC: 4 (Simulation time: 07 hr 58 min 37 sec)
Heartbeat CPU 2 instructions: 510000004 cycles: 127508249 heartbeat IPC: 4 cumulative IPC: 4 (Simulation time: 07 hr 58 min 37 sec)
Heartbeat CPU 7 instructions: 510000002 cycles: 127508302 heartbeat IPC: 4 cumulative IPC: 4 (Simulation time: 07 hr 58 min 37 sec)
Heartbeat CPU 3 instructions: 520000004 cycles: 130008175 heartbeat IPC: 4 cumulative IPC: 4 (Simulation time: 08 hr 07 min 45 sec)
Heartbeat CPU 6 instructions: 520000004 cycles: 130008243 heartbeat IPC: 4 cumulative IPC: 4 (Simulation time: 08 hr 07 min 45 sec)
Heartbeat CPU 2 instructions: 520000004 cycles: 130008249 heartbeat IPC: 4 cumulative IPC: 4 (Simulation time: 08 hr 07 min 45 sec)
Heartbeat CPU 7 instructions: 520000002 cycles: 130008302 heartbeat IPC: 4 cumulative IPC: 4 (Simulation time: 08 hr 07 min 45 sec)
Heartbeat CPU 1 instructions: 300000043 cycles: 131626801 heartbeat IPC: 1.925 cumulative IPC: 1.939 (Simulation time: 08 hr 13 min 33 sec)
Heartbeat CPU 5 instructions: 300000039 cycles: 131626815 heartbeat IPC: 1.925 cumulative IPC: 1.948 (Simulation time: 08 hr 13 min 33 sec)
Heartbeat CPU 3 instructions: 530000004 cycles: 132508175 heartbeat IPC: 4 cumulative IPC: 4 (Simulation time: 08 hr 16 min 49 sec)
Heartbeat CPU 6 instructions: 530000004 cycles: 132508243 heartbeat IPC: 4 cumulative IPC: 4 (Simulation time: 08 hr 16 min 49 sec)
Heartbeat CPU 2 instructions: 530000004 cycles: 132508249 heartbeat IPC: 4 cumulative IPC: 4 (Simulation time: 08 hr 16 min 49 sec)
Heartbeat CPU 7 instructions: 530000002 cycles: 132508302 heartbeat IPC: 4 cumulative IPC: 4 (Simulation time: 08 hr 16 min 49 sec)
*** Reached end of trace: (7, "/home/harshraj/COALESCE-Hashed-Perceptron-Cache-Replacement-Policy/simulator/traces/barnes_4t3.champsimtrace")
*** Reached end of trace: (3, "/home/harshraj/COALESCE-Hashed-Perceptron-Cache-Replacement-Policy/simulator/traces/barnes_4t3.champsimtrace")
Heartbeat CPU 6 instructions: 540000004 cycles: 135008243 heartbeat IPC: 4 cumulative IPC: 4 (Simulation time: 08 hr 26 min 22 sec)
Heartbeat CPU 2 instructions: 540000004 cycles: 135008249 heartbeat IPC: 4 cumulative IPC: 4 (Simulation time: 08 hr 26 min 22 sec)
Heartbeat CPU 3 instructions: 540000006 cycles: 135016035 heartbeat IPC: 3.987 cumulative IPC: 4 (Simulation time: 08 hr 26 min 24 sec)
Heartbeat CPU 7 instructions: 540000002 cycles: 135016044 heartbeat IPC: 3.988 cumulative IPC: 4 (Simulation time: 08 hr 26 min 24 sec)
Heartbeat CPU 0 instructions: 90000010 cycles: 135800288 heartbeat IPC: 0.522 cumulative IPC: 0.5285 (Simulation time: 08 hr 29 min 21 sec)
Heartbeat CPU 4 instructions: 90000010 cycles: 135800289 heartbeat IPC: 0.522 cumulative IPC: 0.5285 (Simulation time: 08 hr 29 min 21 sec)
Heartbeat CPU 1 instructions: 310000043 cycles: 136531085 heartbeat IPC: 2.039 cumulative IPC: 1.946 (Simulation time: 08 hr 31 min 54 sec)
Heartbeat CPU 5 instructions: 310000039 cycles: 136531095 heartbeat IPC: 2.039 cumulative IPC: 1.954 (Simulation time: 08 hr 31 min 54 sec)
Heartbeat CPU 6 instructions: 550000004 cycles: 137508243 heartbeat IPC: 4 cumulative IPC: 4 (Simulation time: 08 hr 35 min 34 sec)
Heartbeat CPU 2 instructions: 550000004 cycles: 137508249 heartbeat IPC: 4 cumulative IPC: 4 (Simulation time: 08 hr 35 min 34 sec)
Heartbeat CPU 3 instructions: 550000006 cycles: 137516035 heartbeat IPC: 4 cumulative IPC: 4 (Simulation time: 08 hr 35 min 36 sec)
Heartbeat CPU 7 instructions: 550000002 cycles: 137516044 heartbeat IPC: 4 cumulative IPC: 4 (Simulation time: 08 hr 35 min 36 sec)
*** Reached end of trace: (6, "/home/harshraj/COALESCE-Hashed-Perceptron-Cache-Replacement-Policy/simulator/traces/barnes_4t2.champsimtrace")
*** Reached end of trace: (2, "/home/harshraj/COALESCE-Hashed-Perceptron-Cache-Replacement-Policy/simulator/traces/barnes_4t2.champsimtrace")
Heartbeat CPU 6 instructions: 560000007 cycles: 140015360 heartbeat IPC: 3.989 cumulative IPC: 4 (Simulation time: 08 hr 45 min 11 sec)
Heartbeat CPU 2 instructions: 560000005 cycles: 140015374 heartbeat IPC: 3.989 cumulative IPC: 4 (Simulation time: 08 hr 45 min 11 sec)
Heartbeat CPU 3 instructions: 560000006 cycles: 140016035 heartbeat IPC: 4 cumulative IPC: 4 (Simulation time: 08 hr 45 min 11 sec)
Heartbeat CPU 7 instructions: 560000002 cycles: 140016044 heartbeat IPC: 4 cumulative IPC: 4 (Simulation time: 08 hr 45 min 11 sec)
Heartbeat CPU 1 instructions: 320000046 cycles: 141708101 heartbeat IPC: 1.932 cumulative IPC: 1.945 (Simulation time: 08 hr 51 min 44 sec)
Heartbeat CPU 5 instructions: 320000042 cycles: 141708346 heartbeat IPC: 1.932 cumulative IPC: 1.952 (Simulation time: 08 hr 51 min 44 sec)
Heartbeat CPU 6 instructions: 570000007 cycles: 142515360 heartbeat IPC: 4 cumulative IPC: 4 (Simulation time: 08 hr 54 min 47 sec)
Heartbeat CPU 2 instructions: 570000005 cycles: 142515374 heartbeat IPC: 4 cumulative IPC: 4 (Simulation time: 08 hr 54 min 47 sec)
Heartbeat CPU 3 instructions: 570000006 cycles: 142516035 heartbeat IPC: 4 cumulative IPC: 4 (Simulation time: 08 hr 54 min 47 sec)
Heartbeat CPU 7 instructions: 570000002 cycles: 142516044 heartbeat IPC: 4 cumulative IPC: 4 (Simulation time: 08 hr 54 min 47 sec)
Heartbeat CPU 6 instructions: 580000007 cycles: 145015360 heartbeat IPC: 4 cumulative IPC: 4 (Simulation time: 09 hr 04 min 01 sec)
Heartbeat CPU 2 instructions: 580000005 cycles: 145015374 heartbeat IPC: 4 cumulative IPC: 4 (Simulation time: 09 hr 04 min 01 sec)
Heartbeat CPU 3 instructions: 580000006 cycles: 145016035 heartbeat IPC: 4 cumulative IPC: 4 (Simulation time: 09 hr 04 min 01 sec)
Heartbeat CPU 7 instructions: 580000002 cycles: 145016044 heartbeat IPC: 4 cumulative IPC: 4 (Simulation time: 09 hr 04 min 01 sec)
Heartbeat CPU 1 instructions: 330000048 cycles: 146778258 heartbeat IPC: 1.972 cumulative IPC: 1.947 (Simulation time: 09 hr 10 min 55 sec)
Heartbeat CPU 5 instructions: 330000044 cycles: 146778587 heartbeat IPC: 1.972 cumulative IPC: 1.953 (Simulation time: 09 hr 10 min 55 sec)
Heartbeat CPU 6 instructions: 590000007 cycles: 147515360 heartbeat IPC: 4 cumulative IPC: 4 (Simulation time: 09 hr 13 min 46 sec)
Heartbeat CPU 2 instructions: 590000005 cycles: 147515374 heartbeat IPC: 4 cumulative IPC: 4 (Simulation time: 09 hr 13 min 46 sec)
Heartbeat CPU 3 instructions: 590000006 cycles: 147516035 heartbeat IPC: 4 cumulative IPC: 4 (Simulation time: 09 hr 13 min 46 sec)
Heartbeat CPU 7 instructions: 590000002 cycles: 147516044 heartbeat IPC: 4 cumulative IPC: 4 (Simulation time: 09 hr 13 min 46 sec)
Heartbeat CPU 6 instructions: 600000007 cycles: 150015360 heartbeat IPC: 4 cumulative IPC: 4 (Simulation time: 09 hr 22 min 54 sec)
Heartbeat CPU 2 instructions: 600000005 cycles: 150015374 heartbeat IPC: 4 cumulative IPC: 4 (Simulation time: 09 hr 22 min 54 sec)
Heartbeat CPU 3 instructions: 600000006 cycles: 150016035 heartbeat IPC: 4 cumulative IPC: 4 (Simulation time: 09 hr 22 min 54 sec)
Heartbeat CPU 7 instructions: 600000002 cycles: 150016044 heartbeat IPC: 4 cumulative IPC: 4 (Simulation time: 09 hr 22 min 54 sec)
Heartbeat CPU 1 instructions: 340000051 cycles: 151578117 heartbeat IPC: 2.083 cumulative IPC: 1.954 (Simulation time: 09 hr 28 min 34 sec)
Heartbeat CPU 5 instructions: 340000047 cycles: 151578400 heartbeat IPC: 2.083 cumulative IPC: 1.96 (Simulation time: 09 hr 28 min 34 sec)
Heartbeat CPU 6 instructions: 610000007 cycles: 152515360 heartbeat IPC: 4 cumulative IPC: 4 (Simulation time: 09 hr 31 min 59 sec)
Heartbeat CPU 2 instructions: 610000005 cycles: 152515374 heartbeat IPC: 4 cumulative IPC: 4 (Simulation time: 09 hr 31 min 59 sec)
Heartbeat CPU 3 instructions: 610000006 cycles: 152516035 heartbeat IPC: 4 cumulative IPC: 4 (Simulation time: 09 hr 31 min 59 sec)
Heartbeat CPU 7 instructions: 610000002 cycles: 152516044 heartbeat IPC: 4 cumulative IPC: 4 (Simulation time: 09 hr 31 min 59 sec)
Heartbeat CPU 0 instructions: 100000014 cycles: 153922479 heartbeat IPC: 0.5518 cumulative IPC: 0.533 (Simulation time: 09 hr 37 min 10 sec)
Heartbeat CPU 4 instructions: 100000014 cycles: 153922480 heartbeat IPC: 0.5518 cumulative IPC: 0.533 (Simulation time: 09 hr 37 min 10 sec)
Heartbeat CPU 6 instructions: 620000007 cycles: 155015360 heartbeat IPC: 4 cumulative IPC: 4 (Simulation time: 09 hr 41 min 18 sec)
Heartbeat CPU 2 instructions: 620000005 cycles: 155015374 heartbeat IPC: 4 cumulative IPC: 4 (Simulation time: 09 hr 41 min 18 sec)
Heartbeat CPU 3 instructions: 620000006 cycles: 155016035 heartbeat IPC: 4 cumulative IPC: 4 (Simulation time: 09 hr 41 min 19 sec)
Heartbeat CPU 7 instructions: 620000002 cycles: 155016044 heartbeat IPC: 4 cumulative IPC: 4 (Simulation time: 09 hr 41 min 19 sec)
Heartbeat CPU 1 instructions: 350000052 cycles: 156005118 heartbeat IPC: 2.259 cumulative IPC: 1.968 (Simulation time: 09 hr 45 min 11 sec)
Heartbeat CPU 5 instructions: 350000048 cycles: 156005151 heartbeat IPC: 2.259 cumulative IPC: 1.974 (Simulation time: 09 hr 45 min 11 sec)
Heartbeat CPU 6 instructions: 630000007 cycles: 157515360 heartbeat IPC: 4 cumulative IPC: 4 (Simulation time: 09 hr 51 min 10 sec)
Heartbeat CPU 2 instructions: 630000005 cycles: 157515374 heartbeat IPC: 4 cumulative IPC: 4 (Simulation time: 09 hr 51 min 10 sec)
Heartbeat CPU 3 instructions: 630000006 cycles: 157516035 heartbeat IPC: 4 cumulative IPC: 4 (Simulation time: 09 hr 51 min 10 sec)
Heartbeat CPU 7 instructions: 630000002 cycles: 157516044 heartbeat IPC: 4 cumulative IPC: 4 (Simulation time: 09 hr 51 min 10 sec)
Heartbeat CPU 6 instructions: 640000007 cycles: 160015360 heartbeat IPC: 4 cumulative IPC: 4 (Simulation time: 10 hr 01 min 07 sec)
Heartbeat CPU 2 instructions: 640000005 cycles: 160015374 heartbeat IPC: 4 cumulative IPC: 4 (Simulation time: 10 hr 01 min 07 sec)
Heartbeat CPU 3 instructions: 640000006 cycles: 160016035 heartbeat IPC: 4 cumulative IPC: 4 (Simulation time: 10 hr 01 min 07 sec)
Heartbeat CPU 7 instructions: 640000002 cycles: 160016044 heartbeat IPC: 4 cumulative IPC: 4 (Simulation time: 10 hr 01 min 07 sec)
Heartbeat CPU 1 instructions: 360000055 cycles: 160991010 heartbeat IPC: 2.006 cumulative IPC: 1.97 (Simulation time: 10 hr 04 min 35 sec)
Heartbeat CPU 5 instructions: 360000051 cycles: 160991034 heartbeat IPC: 2.006 cumulative IPC: 1.976 (Simulation time: 10 hr 04 min 35 sec)
Heartbeat CPU 6 instructions: 650000007 cycles: 162515360 heartbeat IPC: 4 cumulative IPC: 4 (Simulation time: 10 hr 10 min 09 sec)
Heartbeat CPU 2 instructions: 650000005 cycles: 162515374 heartbeat IPC: 4 cumulative IPC: 4 (Simulation time: 10 hr 10 min 09 sec)
Heartbeat CPU 3 instructions: 650000006 cycles: 162516035 heartbeat IPC: 4 cumulative IPC: 4 (Simulation time: 10 hr 10 min 09 sec)
Heartbeat CPU 7 instructions: 650000002 cycles: 162516044 heartbeat IPC: 4 cumulative IPC: 4 (Simulation time: 10 hr 10 min 09 sec)
Heartbeat CPU 6 instructions: 660000007 cycles: 165015360 heartbeat IPC: 4 cumulative IPC: 4 (Simulation time: 10 hr 19 min 26 sec)
Heartbeat CPU 2 instructions: 660000005 cycles: 165015374 heartbeat IPC: 4 cumulative IPC: 4 (Simulation time: 10 hr 19 min 26 sec)
Heartbeat CPU 3 instructions: 660000006 cycles: 165016035 heartbeat IPC: 4 cumulative IPC: 4 (Simulation time: 10 hr 19 min 26 sec)
Heartbeat CPU 7 instructions: 660000002 cycles: 165016044 heartbeat IPC: 4 cumulative IPC: 4 (Simulation time: 10 hr 19 min 26 sec)
Heartbeat CPU 1 instructions: 370000056 cycles: 165673871 heartbeat IPC: 2.135 cumulative IPC: 1.977 (Simulation time: 10 hr 21 min 55 sec)
Heartbeat CPU 5 instructions: 370000052 cycles: 165673927 heartbeat IPC: 2.135 cumulative IPC: 1.983 (Simulation time: 10 hr 21 min 55 sec)
Heartbeat CPU 6 instructions: 670000007 cycles: 167515360 heartbeat IPC: 4 cumulative IPC: 4 (Simulation time: 10 hr 28 min 43 sec)
Heartbeat CPU 2 instructions: 670000005 cycles: 167515374 heartbeat IPC: 4 cumulative IPC: 4 (Simulation time: 10 hr 28 min 43 sec)
Heartbeat CPU 3 instructions: 670000006 cycles: 167516035 heartbeat IPC: 4 cumulative IPC: 4 (Simulation time: 10 hr 28 min 43 sec)
Heartbeat CPU 7 instructions: 670000002 cycles: 167516044 heartbeat IPC: 4 cumulative IPC: 4 (Simulation time: 10 hr 28 min 43 sec)
Heartbeat CPU 6 instructions: 680000007 cycles: 170015360 heartbeat IPC: 4 cumulative IPC: 4 (Simulation time: 10 hr 37 min 28 sec)
Heartbeat CPU 2 instructions: 680000005 cycles: 170015374 heartbeat IPC: 4 cumulative IPC: 4 (Simulation time: 10 hr 37 min 28 sec)
Heartbeat CPU 3 instructions: 680000006 cycles: 170016035 heartbeat IPC: 4 cumulative IPC: 4 (Simulation time: 10 hr 37 min 28 sec)
Heartbeat CPU 7 instructions: 680000002 cycles: 170016044 heartbeat IPC: 4 cumulative IPC: 4 (Simulation time: 10 hr 37 min 28 sec)
Heartbeat CPU 1 instructions: 380000058 cycles: 170625280 heartbeat IPC: 2.02 cumulative IPC: 1.979 (Simulation time: 10 hr 39 min 44 sec)
Heartbeat CPU 5 instructions: 380000054 cycles: 170626175 heartbeat IPC: 2.019 cumulative IPC: 1.984 (Simulation time: 10 hr 39 min 45 sec)
Heartbeat CPU 0 instructions: 110000014 cycles: 170653385 heartbeat IPC: 0.5977 cumulative IPC: 0.5428 (Simulation time: 10 hr 39 min 51 sec)
Heartbeat CPU 4 instructions: 110000017 cycles: 170653438 heartbeat IPC: 0.5977 cumulative IPC: 0.5428 (Simulation time: 10 hr 39 min 51 sec)
Heartbeat CPU 6 instructions: 690000007 cycles: 172515360 heartbeat IPC: 4 cumulative IPC: 4 (Simulation time: 10 hr 46 min 44 sec)
Heartbeat CPU 2 instructions: 690000005 cycles: 172515374 heartbeat IPC: 4 cumulative IPC: 4 (Simulation time: 10 hr 46 min 44 sec)
Heartbeat CPU 3 instructions: 690000006 cycles: 172516035 heartbeat IPC: 4 cumulative IPC: 4 (Simulation time: 10 hr 46 min 44 sec)
Heartbeat CPU 7 instructions: 690000002 cycles: 172516044 heartbeat IPC: 4 cumulative IPC: 4 (Simulation time: 10 hr 46 min 44 sec)
Heartbeat CPU 6 instructions: 700000007 cycles: 175015360 heartbeat IPC: 4 cumulative IPC: 4 (Simulation time: 10 hr 56 min 00 sec)
Heartbeat CPU 2 instructions: 700000005 cycles: 175015374 heartbeat IPC: 4 cumulative IPC: 4 (Simulation time: 10 hr 56 min 00 sec)
Heartbeat CPU 3 instructions: 700000006 cycles: 175016035 heartbeat IPC: 4 cumulative IPC: 4 (Simulation time: 10 hr 56 min 00 sec)
Heartbeat CPU 7 instructions: 700000002 cycles: 175016044 heartbeat IPC: 4 cumulative IPC: 4 (Simulation time: 10 hr 56 min 00 sec)
Heartbeat CPU 1 instructions: 390000061 cycles: 176239129 heartbeat IPC: 1.781 cumulative IPC: 1.969 (Simulation time: 11 hr 00 min 36 sec)
Heartbeat CPU 5 instructions: 390000057 cycles: 176239178 heartbeat IPC: 1.782 cumulative IPC: 1.974 (Simulation time: 11 hr 00 min 36 sec)
Heartbeat CPU 6 instructions: 710000007 cycles: 177515360 heartbeat IPC: 4 cumulative IPC: 4 (Simulation time: 11 hr 05 min 15 sec)
Heartbeat CPU 2 instructions: 710000005 cycles: 177515374 heartbeat IPC: 4 cumulative IPC: 4 (Simulation time: 11 hr 05 min 15 sec)
Heartbeat CPU 3 instructions: 710000006 cycles: 177516035 heartbeat IPC: 4 cumulative IPC: 4 (Simulation time: 11 hr 05 min 15 sec)
Heartbeat CPU 7 instructions: 710000002 cycles: 177516044 heartbeat IPC: 4 cumulative IPC: 4 (Simulation time: 11 hr 05 min 15 sec)
Heartbeat CPU 6 instructions: 720000007 cycles: 180015360 heartbeat IPC: 4 cumulative IPC: 4 (Simulation time: 11 hr 14 min 49 sec)
Heartbeat CPU 2 instructions: 720000005 cycles: 180015374 heartbeat IPC: 4 cumulative IPC: 4 (Simulation time: 11 hr 14 min 49 sec)
Heartbeat CPU 3 instructions: 720000006 cycles: 180016035 heartbeat IPC: 4 cumulative IPC: 4 (Simulation time: 11 hr 14 min 49 sec)
Heartbeat CPU 7 instructions: 720000002 cycles: 180016044 heartbeat IPC: 4 cumulative IPC: 4 (Simulation time: 11 hr 14 min 49 sec)
Heartbeat CPU 1 instructions: 400000063 cycles: 182196415 heartbeat IPC: 1.679 cumulative IPC: 1.955 (Simulation time: 11 hr 23 min 43 sec)
Heartbeat CPU 5 instructions: 400000059 cycles: 182196417 heartbeat IPC: 1.679 cumulative IPC: 1.96 (Simulation time: 11 hr 23 min 43 sec)
Heartbeat CPU 6 instructions: 730000007 cycles: 182515360 heartbeat IPC: 4 cumulative IPC: 4 (Simulation time: 11 hr 24 min 59 sec)
Heartbeat CPU 2 instructions: 730000005 cycles: 182515374 heartbeat IPC: 4 cumulative IPC: 4 (Simulation time: 11 hr 24 min 59 sec)
Heartbeat CPU 3 instructions: 730000006 cycles: 182516035 heartbeat IPC: 4 cumulative IPC: 4 (Simulation time: 11 hr 24 min 59 sec)
Heartbeat CPU 7 instructions: 730000002 cycles: 182516044 heartbeat IPC: 4 cumulative IPC: 4 (Simulation time: 11 hr 24 min 59 sec)
Heartbeat CPU 6 instructions: 740000007 cycles: 185015360 heartbeat IPC: 4 cumulative IPC: 4 (Simulation time: 11 hr 34 min 54 sec)
Heartbeat CPU 2 instructions: 740000005 cycles: 185015374 heartbeat IPC: 4 cumulative IPC: 4 (Simulation time: 11 hr 34 min 54 sec)
Heartbeat CPU 3 instructions: 740000006 cycles: 185016035 heartbeat IPC: 4 cumulative IPC: 4 (Simulation time: 11 hr 34 min 54 sec)
Heartbeat CPU 7 instructions: 740000002 cycles: 185016044 heartbeat IPC: 4 cumulative IPC: 4 (Simulation time: 11 hr 34 min 54 sec)
Heartbeat CPU 0 instructions: 120000015 cycles: 186811353 heartbeat IPC: 0.6189 cumulative IPC: 0.5525 (Simulation time: 11 hr 42 min 20 sec)
Heartbeat CPU 4 instructions: 120000020 cycles: 186811399 heartbeat IPC: 0.6189 cumulative IPC: 0.5525 (Simulation time: 11 hr 42 min 20 sec)
Heartbeat CPU 6 instructions: 750000007 cycles: 187515360 heartbeat IPC: 4 cumulative IPC: 4 (Simulation time: 11 hr 45 min 19 sec)
Heartbeat CPU 2 instructions: 750000005 cycles: 187515374 heartbeat IPC: 4 cumulative IPC: 4 (Simulation time: 11 hr 45 min 19 sec)
Heartbeat CPU 3 instructions: 750000006 cycles: 187516035 heartbeat IPC: 4 cumulative IPC: 4 (Simulation time: 11 hr 45 min 19 sec)
Heartbeat CPU 7 instructions: 750000002 cycles: 187516044 heartbeat IPC: 4 cumulative IPC: 4 (Simulation time: 11 hr 45 min 19 sec)
Heartbeat CPU 1 instructions: 410000064 cycles: 187664101 heartbeat IPC: 1.829 cumulative IPC: 1.95 (Simulation time: 11 hr 45 min 56 sec)
Heartbeat CPU 5 instructions: 410000060 cycles: 187664183 heartbeat IPC: 1.829 cumulative IPC: 1.954 (Simulation time: 11 hr 45 min 56 sec)
Heartbeat CPU 6 instructions: 760000007 cycles: 190015360 heartbeat IPC: 4 cumulative IPC: 4 (Simulation time: 11 hr 55 min 31 sec)
Heartbeat CPU 2 instructions: 760000005 cycles: 190015374 heartbeat IPC: 4 cumulative IPC: 4 (Simulation time: 11 hr 55 min 31 sec)
Heartbeat CPU 3 instructions: 760000006 cycles: 190016035 heartbeat IPC: 4 cumulative IPC: 4 (Simulation time: 11 hr 55 min 31 sec)
Heartbeat CPU 7 instructions: 760000002 cycles: 190016044 heartbeat IPC: 4 cumulative IPC: 4 (Simulation time: 11 hr 55 min 31 sec)
Heartbeat CPU 6 instructions: 770000007 cycles: 192515360 heartbeat IPC: 4 cumulative IPC: 4 (Simulation time: 12 hr 05 min 57 sec)
Heartbeat CPU 2 instructions: 770000005 cycles: 192515374 heartbeat IPC: 4 cumulative IPC: 4 (Simulation time: 12 hr 05 min 57 sec)
Heartbeat CPU 3 instructions: 770000006 cycles: 192516035 heartbeat IPC: 4 cumulative IPC: 4 (Simulation time: 12 hr 05 min 57 sec)
Heartbeat CPU 7 instructions: 770000002 cycles: 192516044 heartbeat IPC: 4 cumulative IPC: 4 (Simulation time: 12 hr 05 min 57 sec)
Heartbeat CPU 6 instructions: 780000007 cycles: 195015360 heartbeat IPC: 4 cumulative IPC: 4 (Simulation time: 12 hr 15 min 57 sec)
Heartbeat CPU 2 instructions: 780000005 cycles: 195015374 heartbeat IPC: 4 cumulative IPC: 4 (Simulation time: 12 hr 15 min 57 sec)
Heartbeat CPU 3 instructions: 780000006 cycles: 195016035 heartbeat IPC: 4 cumulative IPC: 4 (Simulation time: 12 hr 15 min 57 sec)
Heartbeat CPU 7 instructions: 780000002 cycles: 195016044 heartbeat IPC: 4 cumulative IPC: 4 (Simulation time: 12 hr 15 min 57 sec)
Heartbeat CPU 5 instructions: 420000062 cycles: 195632648 heartbeat IPC: 1.255 cumulative IPC: 1.913 (Simulation time: 12 hr 18 min 22 sec)
Heartbeat CPU 1 instructions: 420000066 cycles: 195632649 heartbeat IPC: 1.255 cumulative IPC: 1.909 (Simulation time: 12 hr 18 min 22 sec)
Heartbeat CPU 6 instructions: 790000007 cycles: 197515360 heartbeat IPC: 4 cumulative IPC: 4 (Simulation time: 12 hr 25 min 46 sec)
Heartbeat CPU 2 instructions: 790000005 cycles: 197515374 heartbeat IPC: 4 cumulative IPC: 4 (Simulation time: 12 hr 25 min 46 sec)
Heartbeat CPU 3 instructions: 790000006 cycles: 197516035 heartbeat IPC: 4 cumulative IPC: 4 (Simulation time: 12 hr 25 min 46 sec)
Heartbeat CPU 7 instructions: 790000002 cycles: 197516044 heartbeat IPC: 4 cumulative IPC: 4 (Simulation time: 12 hr 25 min 46 sec)
Heartbeat CPU 0 instructions: 130000017 cycles: 198890389 heartbeat IPC: 0.8279 cumulative IPC: 0.5765 (Simulation time: 12 hr 31 min 02 sec)
Heartbeat CPU 4 instructions: 130000022 cycles: 198890475 heartbeat IPC: 0.8279 cumulative IPC: 0.5765 (Simulation time: 12 hr 31 min 02 sec)
Heartbeat CPU 6 instructions: 800000007 cycles: 200015360 heartbeat IPC: 4 cumulative IPC: 4 (Simulation time: 12 hr 35 min 30 sec)
Heartbeat CPU 2 instructions: 800000005 cycles: 200015374 heartbeat IPC: 4 cumulative IPC: 4 (Simulation time: 12 hr 35 min 30 sec)
Heartbeat CPU 3 instructions: 800000006 cycles: 200016035 heartbeat IPC: 4 cumulative IPC: 4 (Simulation time: 12 hr 35 min 30 sec)
Heartbeat CPU 7 instructions: 800000002 cycles: 200016044 heartbeat IPC: 4 cumulative IPC: 4 (Simulation time: 12 hr 35 min 30 sec)
Heartbeat CPU 1 instructions: 430000066 cycles: 201474138 heartbeat IPC: 1.712 cumulative IPC: 1.901 (Simulation time: 12 hr 41 min 21 sec)
Heartbeat CPU 5 instructions: 430000062 cycles: 201474208 heartbeat IPC: 1.712 cumulative IPC: 1.905 (Simulation time: 12 hr 41 min 21 sec)
Heartbeat CPU 6 instructions: 810000007 cycles: 202515360 heartbeat IPC: 4 cumulative IPC: 4 (Simulation time: 12 hr 45 min 36 sec)
Heartbeat CPU 2 instructions: 810000005 cycles: 202515374 heartbeat IPC: 4 cumulative IPC: 4 (Simulation time: 12 hr 45 min 36 sec)
Heartbeat CPU 3 instructions: 810000006 cycles: 202516035 heartbeat IPC: 4 cumulative IPC: 4 (Simulation time: 12 hr 45 min 36 sec)
Heartbeat CPU 7 instructions: 810000002 cycles: 202516044 heartbeat IPC: 4 cumulative IPC: 4 (Simulation time: 12 hr 45 min 36 sec)
Heartbeat CPU 6 instructions: 820000007 cycles: 205015360 heartbeat IPC: 4 cumulative IPC: 4 (Simulation time: 12 hr 56 min 47 sec)
Heartbeat CPU 2 instructions: 820000005 cycles: 205015374 heartbeat IPC: 4 cumulative IPC: 4 (Simulation time: 12 hr 56 min 47 sec)
Heartbeat CPU 3 instructions: 820000006 cycles: 205016035 heartbeat IPC: 4 cumulative IPC: 4 (Simulation time: 12 hr 56 min 47 sec)
Heartbeat CPU 7 instructions: 820000002 cycles: 205016044 heartbeat IPC: 4 cumulative IPC: 4 (Simulation time: 12 hr 56 min 47 sec)
Heartbeat CPU 0 instructions: 140000020 cycles: 205551285 heartbeat IPC: 1.501 cumulative IPC: 0.6188 (Simulation time: 12 hr 59 min 18 sec)
Heartbeat CPU 4 instructions: 140000025 cycles: 205561503 heartbeat IPC: 1.499 cumulative IPC: 0.6188 (Simulation time: 12 hr 59 min 21 sec)
Heartbeat CPU 1 instructions: 440000069 cycles: 206535126 heartbeat IPC: 1.976 cumulative IPC: 1.903 (Simulation time: 13 hr 03 min 49 sec)
Heartbeat CPU 5 instructions: 440000065 cycles: 206535179 heartbeat IPC: 1.976 cumulative IPC: 1.907 (Simulation time: 13 hr 03 min 49 sec)
Heartbeat CPU 6 instructions: 830000007 cycles: 207515360 heartbeat IPC: 4 cumulative IPC: 4 (Simulation time: 13 hr 08 min 00 sec)
Heartbeat CPU 2 instructions: 830000005 cycles: 207515374 heartbeat IPC: 4 cumulative IPC: 4 (Simulation time: 13 hr 08 min 00 sec)
Heartbeat CPU 3 instructions: 830000006 cycles: 207516035 heartbeat IPC: 4 cumulative IPC: 4 (Simulation time: 13 hr 08 min 00 sec)
Heartbeat CPU 7 instructions: 830000002 cycles: 207516044 heartbeat IPC: 4 cumulative IPC: 4 (Simulation time: 13 hr 08 min 00 sec)
Heartbeat CPU 6 instructions: 840000007 cycles: 210015360 heartbeat IPC: 4 cumulative IPC: 4 (Simulation time: 13 hr 18 min 23 sec)
Heartbeat CPU 2 instructions: 840000005 cycles: 210015374 heartbeat IPC: 4 cumulative IPC: 4 (Simulation time: 13 hr 18 min 23 sec)
Heartbeat CPU 3 instructions: 840000006 cycles: 210016035 heartbeat IPC: 4 cumulative IPC: 4 (Simulation time: 13 hr 18 min 23 sec)
Heartbeat CPU 7 instructions: 840000002 cycles: 210016044 heartbeat IPC: 4 cumulative IPC: 4 (Simulation time: 13 hr 18 min 23 sec)
Heartbeat CPU 1 instructions: 450000070 cycles: 211758521 heartbeat IPC: 1.914 cumulative IPC: 1.904 (Simulation time: 13 hr 25 min 05 sec)
Heartbeat CPU 5 instructions: 450000066 cycles: 211758614 heartbeat IPC: 1.914 cumulative IPC: 1.908 (Simulation time: 13 hr 25 min 05 sec)
Heartbeat CPU 6 instructions: 850000007 cycles: 212515360 heartbeat IPC: 4 cumulative IPC: 4 (Simulation time: 13 hr 27 min 56 sec)
Heartbeat CPU 2 instructions: 850000005 cycles: 212515374 heartbeat IPC: 4 cumulative IPC: 4 (Simulation time: 13 hr 27 min 56 sec)
Heartbeat CPU 3 instructions: 850000006 cycles: 212516035 heartbeat IPC: 4 cumulative IPC: 4 (Simulation time: 13 hr 27 min 56 sec)
Heartbeat CPU 7 instructions: 850000002 cycles: 212516044 heartbeat IPC: 4 cumulative IPC: 4 (Simulation time: 13 hr 27 min 56 sec)
Heartbeat CPU 6 instructions: 860000007 cycles: 215015360 heartbeat IPC: 4 cumulative IPC: 4 (Simulation time: 13 hr 37 min 42 sec)
Heartbeat CPU 2 instructions: 860000005 cycles: 215015374 heartbeat IPC: 4 cumulative IPC: 4 (Simulation time: 13 hr 37 min 42 sec)
Heartbeat CPU 3 instructions: 860000006 cycles: 215016035 heartbeat IPC: 4 cumulative IPC: 4 (Simulation time: 13 hr 37 min 42 sec)
Heartbeat CPU 7 instructions: 860000002 cycles: 215016044 heartbeat IPC: 4 cumulative IPC: 4 (Simulation time: 13 hr 37 min 42 sec)
Heartbeat CPU 1 instructions: 460000072 cycles: 216762534 heartbeat IPC: 1.998 cumulative IPC: 1.907 (Simulation time: 13 hr 44 min 14 sec)
Heartbeat CPU 5 instructions: 460000067 cycles: 216762569 heartbeat IPC: 1.998 cumulative IPC: 1.911 (Simulation time: 13 hr 44 min 14 sec)
Simulation finished CPU 0 instructions: 100000004 cycles: 157045864 cumulative IPC: 0.6368 (Simulation time: 13 hr 45 min 36 sec)
Heartbeat CPU 0 instructions: 150000024 cycles: 217165254 heartbeat IPC: 0.861 cumulative IPC: 0.6368 (Simulation time: 13 hr 45 min 36 sec)
Heartbeat CPU 4 instructions: 150000029 cycles: 217165322 heartbeat IPC: 0.8618 cumulative IPC: 0.6368 (Simulation time: 13 hr 45 min 36 sec)
Simulation finished CPU 4 instructions: 100000001 cycles: 157046045 cumulative IPC: 0.6368 (Simulation time: 13 hr 45 min 36 sec)
Simulation complete CPU 7 instructions: 628153212 cycles: 157046045 cumulative IPC: 4 (Simulation time: 13 hr 45 min 36 sec)
Simulation complete CPU 6 instructions: 628155470 cycles: 157046045 cumulative IPC: 4 (Simulation time: 13 hr 45 min 36 sec)
Simulation complete CPU 5 instructions: 300155199 cycles: 157046045 cumulative IPC: 1.911 (Simulation time: 13 hr 45 min 36 sec)
Simulation complete CPU 4 instructions: 100000001 cycles: 157046045 cumulative IPC: 0.6368 (Simulation time: 13 hr 45 min 36 sec)
Simulation complete CPU 3 instructions: 628152464 cycles: 157046045 cumulative IPC: 4 (Simulation time: 13 hr 45 min 36 sec)
Simulation complete CPU 2 instructions: 628155410 cycles: 157046045 cumulative IPC: 4 (Simulation time: 13 hr 45 min 36 sec)
Simulation complete CPU 1 instructions: 299564682 cycles: 157046045 cumulative IPC: 1.907 (Simulation time: 13 hr 45 min 36 sec)
Simulation complete CPU 0 instructions: 100000096 cycles: 157046045 cumulative IPC: 0.6368 (Simulation time: 13 hr 45 min 36 sec)

ChampSim completed all CPUs

=== Simulation ===
CPU 0 runs /home/harshraj/COALESCE-Hashed-Perceptron-Cache-Replacement-Policy/simulator/traces/barnes_4t0.champsimtrace
CPU 1 runs /home/harshraj/COALESCE-Hashed-Perceptron-Cache-Replacement-Policy/simulator/traces/barnes_4t1.champsimtrace
CPU 2 runs /home/harshraj/COALESCE-Hashed-Perceptron-Cache-Replacement-Policy/simulator/traces/barnes_4t2.champsimtrace
CPU 3 runs /home/harshraj/COALESCE-Hashed-Perceptron-Cache-Replacement-Policy/simulator/traces/barnes_4t3.champsimtrace
CPU 4 runs /home/harshraj/COALESCE-Hashed-Perceptron-Cache-Replacement-Policy/simulator/traces/barnes_4t0.champsimtrace
CPU 5 runs /home/harshraj/COALESCE-Hashed-Perceptron-Cache-Replacement-Policy/simulator/traces/barnes_4t1.champsimtrace
CPU 6 runs /home/harshraj/COALESCE-Hashed-Perceptron-Cache-Replacement-Policy/simulator/traces/barnes_4t2.champsimtrace
CPU 7 runs /home/harshraj/COALESCE-Hashed-Perceptron-Cache-Replacement-Policy/simulator/traces/barnes_4t3.champsimtrace

Total Simulation Statistics (not including warmup)

CPU 7 cumulative IPC: 4 instructions: 628153212 cycles: 157046045
CPU 7 Branch Prediction Accuracy: -% MPKI: 0 Average ROB Occupancy at Mispredict: -
Branch type MPKI
BRANCH_DIRECT_JUMP: 0
BRANCH_INDIRECT: 0
BRANCH_CONDITIONAL: 0
BRANCH_DIRECT_CALL: 0
BRANCH_INDIRECT_CALL: 0
BRANCH_RETURN: 0


CPU 6 cumulative IPC: 4 instructions: 628155470 cycles: 157046045
CPU 6 Branch Prediction Accuracy: -% MPKI: 0 Average ROB Occupancy at Mispredict: -
Branch type MPKI
BRANCH_DIRECT_JUMP: 0
BRANCH_INDIRECT: 0
BRANCH_CONDITIONAL: 0
BRANCH_DIRECT_CALL: 0
BRANCH_INDIRECT_CALL: 0
BRANCH_RETURN: 0


CPU 5 cumulative IPC: 1.911 instructions: 300155199 cycles: 157046045
CPU 5 Branch Prediction Accuracy: -% MPKI: 0 Average ROB Occupancy at Mispredict: -
Branch type MPKI
BRANCH_DIRECT_JUMP: 0
BRANCH_INDIRECT: 0
BRANCH_CONDITIONAL: 0
BRANCH_DIRECT_CALL: 0
BRANCH_INDIRECT_CALL: 0
BRANCH_RETURN: 0


CPU 4 cumulative IPC: 0.6368 instructions: 100000001 cycles: 157046045
CPU 4 Branch Prediction Accuracy: -% MPKI: 0 Average ROB Occupancy at Mispredict: -
Branch type MPKI
BRANCH_DIRECT_JUMP: 0
BRANCH_INDIRECT: 0
BRANCH_CONDITIONAL: 0
BRANCH_DIRECT_CALL: 0
BRANCH_INDIRECT_CALL: 0
BRANCH_RETURN: 0


CPU 3 cumulative IPC: 4 instructions: 628152464 cycles: 157046045
CPU 3 Branch Prediction Accuracy: -% MPKI: 0 Average ROB Occupancy at Mispredict: -
Branch type MPKI
BRANCH_DIRECT_JUMP: 0
BRANCH_INDIRECT: 0
BRANCH_CONDITIONAL: 0
BRANCH_DIRECT_CALL: 0
BRANCH_INDIRECT_CALL: 0
BRANCH_RETURN: 0


CPU 2 cumulative IPC: 4 instructions: 628155410 cycles: 157046045
CPU 2 Branch Prediction Accuracy: -% MPKI: 0 Average ROB Occupancy at Mispredict: -
Branch type MPKI
BRANCH_DIRECT_JUMP: 0
BRANCH_INDIRECT: 0
BRANCH_CONDITIONAL: 0
BRANCH_DIRECT_CALL: 0
BRANCH_INDIRECT_CALL: 0
BRANCH_RETURN: 0


CPU 1 cumulative IPC: 1.907 instructions: 299564682 cycles: 157046045
CPU 1 Branch Prediction Accuracy: -% MPKI: 0 Average ROB Occupancy at Mispredict: -
Branch type MPKI
BRANCH_DIRECT_JUMP: 0
BRANCH_INDIRECT: 0
BRANCH_CONDITIONAL: 0
BRANCH_DIRECT_CALL: 0
BRANCH_INDIRECT_CALL: 0
BRANCH_RETURN: 0


CPU 0 cumulative IPC: 0.6368 instructions: 100000096 cycles: 157046045
CPU 0 Branch Prediction Accuracy: -% MPKI: 0 Average ROB Occupancy at Mispredict: -
Branch type MPKI
BRANCH_DIRECT_JUMP: 0
BRANCH_INDIRECT: 0
BRANCH_CONDITIONAL: 0
BRANCH_DIRECT_CALL: 0
BRANCH_INDIRECT_CALL: 0
BRANCH_RETURN: 0

cpu7->cpu7_STLB TOTAL        ACCESS:         18 HIT:          8 MISS:         10 MSHR_MERGE:          0
cpu7->cpu7_STLB LOAD         ACCESS:         18 HIT:          8 MISS:         10 MSHR_MERGE:          0
cpu7->cpu7_STLB RFO          ACCESS:          0 HIT:          0 MISS:          0 MSHR_MERGE:          0
cpu7->cpu7_STLB PREFETCH     ACCESS:          0 HIT:          0 MISS:          0 MSHR_MERGE:          0
cpu7->cpu7_STLB WRITE        ACCESS:          0 HIT:          0 MISS:          0 MSHR_MERGE:          0
cpu7->cpu7_STLB TRANSLATION  ACCESS:          0 HIT:          0 MISS:          0 MSHR_MERGE:          0
cpu7->cpu7_STLB PREFETCH REQUESTED:          0 ISSUED:          0 USEFUL:          0 USELESS:          0
cpu7->cpu7_STLB AVERAGE MISS LATENCY: 675.2 cycles
cpu7_STLB COHERENCE INVALIDATIONS:          0
cpu7_STLB COHERENCE WRITE-HIT OTHER-SHARER EVENTS:          0
cpu7->cpu7_L2C TOTAL        ACCESS:         58 HIT:          4 MISS:         54 MSHR_MERGE:          0
cpu7->cpu7_L2C LOAD         ACCESS:         38 HIT:          4 MISS:         34 MSHR_MERGE:          0
cpu7->cpu7_L2C RFO          ACCESS:          0 HIT:          0 MISS:          0 MSHR_MERGE:          0
cpu7->cpu7_L2C PREFETCH     ACCESS:          0 HIT:          0 MISS:          0 MSHR_MERGE:          0
cpu7->cpu7_L2C WRITE        ACCESS:          0 HIT:          0 MISS:          0 MSHR_MERGE:          0
cpu7->cpu7_L2C TRANSLATION  ACCESS:         20 HIT:          0 MISS:         20 MSHR_MERGE:          0
cpu7->cpu7_L2C PREFETCH REQUESTED:          0 ISSUED:          0 USEFUL:          0 USELESS:          0
cpu7->cpu7_L2C AVERAGE MISS LATENCY: 240.2 cycles
cpu7_L2C COHERENCE INVALIDATIONS:          0
cpu7_L2C COHERENCE WRITE-HIT OTHER-SHARER EVENTS:          0
cpu7->cpu7_L1I TOTAL        ACCESS:   90160081 HIT:   90160028 MISS:         53 MSHR_MERGE:         15
cpu7->cpu7_L1I LOAD         ACCESS:   90160081 HIT:   90160028 MISS:         53 MSHR_MERGE:         15
cpu7->cpu7_L1I RFO          ACCESS:          0 HIT:          0 MISS:          0 MSHR_MERGE:          0
cpu7->cpu7_L1I PREFETCH     ACCESS:          0 HIT:          0 MISS:          0 MSHR_MERGE:          0
cpu7->cpu7_L1I WRITE        ACCESS:          0 HIT:          0 MISS:          0 MSHR_MERGE:          0
cpu7->cpu7_L1I TRANSLATION  ACCESS:          0 HIT:          0 MISS:          0 MSHR_MERGE:          0
cpu7->cpu7_L1I PREFETCH REQUESTED:          0 ISSUED:          0 USEFUL:          0 USELESS:          0
cpu7->cpu7_L1I AVERAGE MISS LATENCY: 241.9 cycles
cpu7_L1I COHERENCE INVALIDATIONS:          0
cpu7_L1I COHERENCE WRITE-HIT OTHER-SHARER EVENTS:          0
cpu7->cpu7_L1D TOTAL        ACCESS:         20 HIT:          0 MISS:         20 MSHR_MERGE:          0
cpu7->cpu7_L1D LOAD         ACCESS:          0 HIT:          0 MISS:          0 MSHR_MERGE:          0
cpu7->cpu7_L1D RFO          ACCESS:          0 HIT:          0 MISS:          0 MSHR_MERGE:          0
cpu7->cpu7_L1D PREFETCH     ACCESS:          0 HIT:          0 MISS:          0 MSHR_MERGE:          0
cpu7->cpu7_L1D WRITE        ACCESS:          0 HIT:          0 MISS:          0 MSHR_MERGE:          0
cpu7->cpu7_L1D TRANSLATION  ACCESS:         20 HIT:          0 MISS:         20 MSHR_MERGE:          0
cpu7->cpu7_L1D PREFETCH REQUESTED:          0 ISSUED:          0 USEFUL:          0 USELESS:          0
cpu7->cpu7_L1D AVERAGE MISS LATENCY: 211.6 cycles
cpu7_L1D COHERENCE INVALIDATIONS:          0
cpu7_L1D COHERENCE WRITE-HIT OTHER-SHARER EVENTS:          0
cpu7->cpu7_ITLB TOTAL        ACCESS:   72682990 HIT:   72682956 MISS:         34 MSHR_MERGE:         16
cpu7->cpu7_ITLB LOAD         ACCESS:   72682990 HIT:   72682956 MISS:         34 MSHR_MERGE:         16
cpu7->cpu7_ITLB RFO          ACCESS:          0 HIT:          0 MISS:          0 MSHR_MERGE:          0
cpu7->cpu7_ITLB PREFETCH     ACCESS:          0 HIT:          0 MISS:          0 MSHR_MERGE:          0
cpu7->cpu7_ITLB WRITE        ACCESS:          0 HIT:          0 MISS:          0 MSHR_MERGE:          0
cpu7->cpu7_ITLB TRANSLATION  ACCESS:          0 HIT:          0 MISS:          0 MSHR_MERGE:          0
cpu7->cpu7_ITLB PREFETCH REQUESTED:          0 ISSUED:          0 USEFUL:          0 USELESS:          0
cpu7->cpu7_ITLB AVERAGE MISS LATENCY: 379.7 cycles
cpu7_ITLB COHERENCE INVALIDATIONS:          0
cpu7_ITLB COHERENCE WRITE-HIT OTHER-SHARER EVENTS:          0
cpu7_DTLB COHERENCE INVALIDATIONS:          0
cpu7_DTLB COHERENCE WRITE-HIT OTHER-SHARER EVENTS:          0
cpu6->cpu6_STLB TOTAL        ACCESS:         17 HIT:          7 MISS:         10 MSHR_MERGE:          0
cpu6->cpu6_STLB LOAD         ACCESS:         17 HIT:          7 MISS:         10 MSHR_MERGE:          0
cpu6->cpu6_STLB RFO          ACCESS:          0 HIT:          0 MISS:          0 MSHR_MERGE:          0
cpu6->cpu6_STLB PREFETCH     ACCESS:          0 HIT:          0 MISS:          0 MSHR_MERGE:          0
cpu6->cpu6_STLB WRITE        ACCESS:          0 HIT:          0 MISS:          0 MSHR_MERGE:          0
cpu6->cpu6_STLB TRANSLATION  ACCESS:          0 HIT:          0 MISS:          0 MSHR_MERGE:          0
cpu6->cpu6_STLB PREFETCH REQUESTED:          0 ISSUED:          0 USEFUL:          0 USELESS:          0
cpu6->cpu6_STLB AVERAGE MISS LATENCY: 676.9 cycles
cpu6_STLB COHERENCE INVALIDATIONS:          0
cpu6_STLB COHERENCE WRITE-HIT OTHER-SHARER EVENTS:          0
cpu6->cpu6_L2C TOTAL        ACCESS:         58 HIT:          4 MISS:         54 MSHR_MERGE:          0
cpu6->cpu6_L2C LOAD         ACCESS:         38 HIT:          4 MISS:         34 MSHR_MERGE:          0
cpu6->cpu6_L2C RFO          ACCESS:          0 HIT:          0 MISS:          0 MSHR_MERGE:          0
cpu6->cpu6_L2C PREFETCH     ACCESS:          0 HIT:          0 MISS:          0 MSHR_MERGE:          0
cpu6->cpu6_L2C WRITE        ACCESS:          0 HIT:          0 MISS:          0 MSHR_MERGE:          0
cpu6->cpu6_L2C TRANSLATION  ACCESS:         20 HIT:          0 MISS:         20 MSHR_MERGE:          0
cpu6->cpu6_L2C PREFETCH REQUESTED:          0 ISSUED:          0 USEFUL:          0 USELESS:          0
cpu6->cpu6_L2C AVERAGE MISS LATENCY: 134.8 cycles
cpu6_L2C COHERENCE INVALIDATIONS:          0
cpu6_L2C COHERENCE WRITE-HIT OTHER-SHARER EVENTS:          0
cpu6->cpu6_L1I TOTAL        ACCESS:   91544323 HIT:   91544270 MISS:         53 MSHR_MERGE:         15
cpu6->cpu6_L1I LOAD         ACCESS:   91544323 HIT:   91544270 MISS:         53 MSHR_MERGE:         15
cpu6->cpu6_L1I RFO          ACCESS:          0 HIT:          0 MISS:          0 MSHR_MERGE:          0
cpu6->cpu6_L1I PREFETCH     ACCESS:          0 HIT:          0 MISS:          0 MSHR_MERGE:          0
cpu6->cpu6_L1I WRITE        ACCESS:          0 HIT:          0 MISS:          0 MSHR_MERGE:          0
cpu6->cpu6_L1I TRANSLATION  ACCESS:          0 HIT:          0 MISS:          0 MSHR_MERGE:          0
cpu6->cpu6_L1I PREFETCH REQUESTED:          0 ISSUED:          0 USEFUL:          0 USELESS:          0
cpu6->cpu6_L1I AVERAGE MISS LATENCY: 81.42 cycles
cpu6_L1I COHERENCE INVALIDATIONS:          0
cpu6_L1I COHERENCE WRITE-HIT OTHER-SHARER EVENTS:          0
cpu6->cpu6_L1D TOTAL        ACCESS:         20 HIT:          0 MISS:         20 MSHR_MERGE:          0
cpu6->cpu6_L1D LOAD         ACCESS:          0 HIT:          0 MISS:          0 MSHR_MERGE:          0
cpu6->cpu6_L1D RFO          ACCESS:          0 HIT:          0 MISS:          0 MSHR_MERGE:          0
cpu6->cpu6_L1D PREFETCH     ACCESS:          0 HIT:          0 MISS:          0 MSHR_MERGE:          0
cpu6->cpu6_L1D WRITE        ACCESS:          0 HIT:          0 MISS:          0 MSHR_MERGE:          0
cpu6->cpu6_L1D TRANSLATION  ACCESS:         20 HIT:          0 MISS:         20 MSHR_MERGE:          0
cpu6->cpu6_L1D PREFETCH REQUESTED:          0 ISSUED:          0 USEFUL:          0 USELESS:          0
cpu6->cpu6_L1D AVERAGE MISS LATENCY: 232.4 cycles
cpu6_L1D COHERENCE INVALIDATIONS:          0
cpu6_L1D COHERENCE WRITE-HIT OTHER-SHARER EVENTS:          0
cpu6->cpu6_ITLB TOTAL        ACCESS:   73050054 HIT:   73050028 MISS:         26 MSHR_MERGE:          9
cpu6->cpu6_ITLB LOAD         ACCESS:   73050054 HIT:   73050028 MISS:         26 MSHR_MERGE:          9
cpu6->cpu6_ITLB RFO          ACCESS:          0 HIT:          0 MISS:          0 MSHR_MERGE:          0
cpu6->cpu6_ITLB PREFETCH     ACCESS:          0 HIT:          0 MISS:          0 MSHR_MERGE:          0
cpu6->cpu6_ITLB WRITE        ACCESS:          0 HIT:          0 MISS:          0 MSHR_MERGE:          0
cpu6->cpu6_ITLB TRANSLATION  ACCESS:          0 HIT:          0 MISS:          0 MSHR_MERGE:          0
cpu6->cpu6_ITLB PREFETCH REQUESTED:          0 ISSUED:          0 USEFUL:          0 USELESS:          0
cpu6->cpu6_ITLB AVERAGE MISS LATENCY: 402.8 cycles
cpu6_ITLB COHERENCE INVALIDATIONS:          0
cpu6_ITLB COHERENCE WRITE-HIT OTHER-SHARER EVENTS:          0
cpu6_DTLB COHERENCE INVALIDATIONS:          0
cpu6_DTLB COHERENCE WRITE-HIT OTHER-SHARER EVENTS:          0
[...]
cpu2->cpu2_STLB PREFETCH REQUESTED:          0 ISSUED:          0 USEFUL:          0 USELESS:          0
cpu2->cpu2_STLB AVERAGE MISS LATENCY: 648.4 cycles
cpu2_STLB COHERENCE INVALIDATIONS:          0
cpu2_STLB COHERENCE WRITE-HIT OTHER-SHARER EVENTS:          0
cpu2->cpu2_L2C TOTAL        ACCESS:         58 HIT:          4 MISS:         54 MSHR_MERGE:          0
cpu2->cpu2_L2C LOAD         ACCESS:         38 HIT:          4 MISS:         34 MSHR_MERGE:          0
cpu2->cpu2_L2C RFO          ACCESS:          0 HIT:          0 MISS:          0 MSHR_MERGE:          0
cpu2->cpu2_L2C PREFETCH     ACCESS:          0 HIT:          0 MISS:          0 MSHR_MERGE:          0
cpu2->cpu2_L2C WRITE        ACCESS:          0 HIT:          0 MISS:          0 MSHR_MERGE:          0
cpu2->cpu2_L2C TRANSLATION  ACCESS:         20 HIT:          0 MISS:         20 MSHR_MERGE:          0
cpu2->cpu2_L2C PREFETCH REQUESTED:          0 ISSUED:          0 USEFUL:          0 USELESS:          0
cpu2->cpu2_L2C AVERAGE MISS LATENCY: 216.7 cycles
cpu2_L2C COHERENCE INVALIDATIONS:          0
cpu2_L2C COHERENCE WRITE-HIT OTHER-SHARER EVENTS:          0
cpu2->cpu2_L1I TOTAL        ACCESS:   90714606 HIT:   90714553 MISS:         53 MSHR_MERGE:         15
cpu2->cpu2_L1I LOAD         ACCESS:   90714606 HIT:   90714553 MISS:         53 MSHR_MERGE:         15
cpu2->cpu2_L1I RFO          ACCESS:          0 HIT:          0 MISS:          0 MSHR_MERGE:          0
cpu2->cpu2_L1I PREFETCH     ACCESS:          0 HIT:          0 MISS:          0 MSHR_MERGE:          0
cpu2->cpu2_L1I WRITE        ACCESS:          0 HIT:          0 MISS:          0 MSHR_MERGE:          0
cpu2->cpu2_L1I TRANSLATION  ACCESS:          0 HIT:          0 MISS:          0 MSHR_MERGE:          0
cpu2->cpu2_L1I PREFETCH REQUESTED:          0 ISSUED:          0 USEFUL:          0 USELESS:          0
cpu2->cpu2_L1I AVERAGE MISS LATENCY: 205.3 cycles
cpu2_L1I COHERENCE INVALIDATIONS:          0
cpu2_L1I COHERENCE WRITE-HIT OTHER-SHARER EVENTS:          0
cpu2->cpu2_L1D TOTAL        ACCESS:         20 HIT:          0 MISS:         20 MSHR_MERGE:          0
cpu2->cpu2_L1D LOAD         ACCESS:          0 HIT:          0 MISS:          0 MSHR_MERGE:          0
cpu2->cpu2_L1D RFO          ACCESS:          0 HIT:          0 MISS:          0 MSHR_MERGE:          0
cpu2->cpu2_L1D PREFETCH     ACCESS:          0 HIT:          0 MISS:          0 MSHR_MERGE:          0
cpu2->cpu2_L1D WRITE        ACCESS:          0 HIT:          0 MISS:          0 MSHR_MERGE:          0
cpu2->cpu2_L1D TRANSLATION  ACCESS:         20 HIT:          0 MISS:         20 MSHR_MERGE:          0
cpu2->cpu2_L1D PREFETCH REQUESTED:          0 ISSUED:          0 USEFUL:          0 USELESS:          0
cpu2->cpu2_L1D AVERAGE MISS LATENCY: 218.2 cycles
cpu2_L1D COHERENCE INVALIDATIONS:          0
cpu2_L1D COHERENCE WRITE-HIT OTHER-SHARER EVENTS:          0
cpu2->cpu2_ITLB TOTAL        ACCESS:   72483091 HIT:   72483064 MISS:         27 MSHR_MERGE:         10
cpu2->cpu2_ITLB LOAD         ACCESS:   72483091 HIT:   72483064 MISS:         27 MSHR_MERGE:         10
cpu2->cpu2_ITLB RFO          ACCESS:          0 HIT:          0 MISS:          0 MSHR_MERGE:          0
cpu2->cpu2_ITLB PREFETCH     ACCESS:          0 HIT:          0 MISS:          0 MSHR_MERGE:          0
cpu2->cpu2_ITLB WRITE        ACCESS:          0 HIT:          0 MISS:          0 MSHR_MERGE:          0
cpu2->cpu2_ITLB TRANSLATION  ACCESS:          0 HIT:          0 MISS:          0 MSHR_MERGE:          0
cpu2->cpu2_ITLB PREFETCH REQUESTED:          0 ISSUED:          0 USEFUL:          0 USELESS:          0
cpu2->cpu2_ITLB AVERAGE MISS LATENCY: 386 cycles
cpu2_ITLB COHERENCE INVALIDATIONS:          0
cpu2_ITLB COHERENCE WRITE-HIT OTHER-SHARER EVENTS:          0
cpu2_DTLB COHERENCE INVALIDATIONS:          0
cpu2_DTLB COHERENCE WRITE-HIT OTHER-SHARER EVENTS:          0
cpu1->cpu1_STLB TOTAL        ACCESS:    1121075 HIT:    1120907 MISS:        168 MSHR_MERGE:          0
cpu1->cpu1_STLB LOAD         ACCESS:    1121075 HIT:    1120907 MISS:        168 MSHR_MERGE:          0
cpu1->cpu1_STLB RFO          ACCESS:          0 HIT:          0 MISS:          0 MSHR_MERGE:          0
cpu1->cpu1_STLB PREFETCH     ACCESS:          0 HIT:          0 MISS:          0 MSHR_MERGE:          0
cpu1->cpu1_STLB WRITE        ACCESS:          0 HIT:          0 MISS:          0 MSHR_MERGE:          0
cpu1->cpu1_STLB TRANSLATION  ACCESS:          0 HIT:          0 MISS:          0 MSHR_MERGE:          0
cpu1->cpu1_STLB PREFETCH REQUESTED:          0 ISSUED:          0 USEFUL:          0 USELESS:          0
cpu1->cpu1_STLB AVERAGE MISS LATENCY: 590.8 cycles
cpu1_STLB COHERENCE INVALIDATIONS:          0
cpu1_STLB COHERENCE WRITE-HIT OTHER-SHARER EVENTS:          0
cpu1->cpu1_L2C TOTAL        ACCESS:    3339601 HIT:    3053252 MISS:     286349 MSHR_MERGE:          0
cpu1->cpu1_L2C LOAD         ACCESS:    3339404 HIT:    3053252 MISS:     286152 MSHR_MERGE:          0
cpu1->cpu1_L2C RFO          ACCESS:          0 HIT:          0 MISS:          0 MSHR_MERGE:          0
cpu1->cpu1_L2C PREFETCH     ACCESS:          0 HIT:          0 MISS:          0 MSHR_MERGE:          0
cpu1->cpu1_L2C WRITE        ACCESS:          0 HIT:          0 MISS:          0 MSHR_MERGE:          0
cpu1->cpu1_L2C TRANSLATION  ACCESS:        197 HIT:          0 MISS:        197 MSHR_MERGE:          0
cpu1->cpu1_L2C PREFETCH REQUESTED:          0 ISSUED:          0 USEFUL:          0 USELESS:          0
cpu1->cpu1_L2C AVERAGE MISS LATENCY: 113.3 cycles
cpu1_L2C COHERENCE INVALIDATIONS:          0
cpu1_L2C COHERENCE WRITE-HIT OTHER-SHARER EVENTS:          0
cpu1->cpu1_L1I TOTAL        ACCESS:   62939770 HIT:   59545281 MISS:    3394489 MSHR_MERGE:      55085
cpu1->cpu1_L1I LOAD         ACCESS:   62939770 HIT:   59545281 MISS:    3394489 MSHR_MERGE:      55085
cpu1->cpu1_L1I RFO          ACCESS:          0 HIT:          0 MISS:          0 MSHR_MERGE:          0
cpu1->cpu1_L1I PREFETCH     ACCESS:          0 HIT:          0 MISS:          0 MSHR_MERGE:          0
cpu1->cpu1_L1I WRITE        ACCESS:          0 HIT:          0 MISS:          0 MSHR_MERGE:          0
cpu1->cpu1_L1I TRANSLATION  ACCESS:          0 HIT:          0 MISS:          0 MSHR_MERGE:          0
cpu1->cpu1_L1I PREFETCH REQUESTED:          0 ISSUED:          0 USEFUL:          0 USELESS:          0
cpu1->cpu1_L1I AVERAGE MISS LATENCY: 16.79 cycles
cpu1_L1I COHERENCE INVALIDATIONS:          0
cpu1_L1I COHERENCE WRITE-HIT OTHER-SHARER EVENTS:          0
cpu1->cpu1_L1D TOTAL        ACCESS:        339 HIT:        142 MISS:        197 MSHR_MERGE:          0
cpu1->cpu1_L1D LOAD         ACCESS:          0 HIT:          0 MISS:          0 MSHR_MERGE:          0
cpu1->cpu1_L1D RFO          ACCESS:          0 HIT:          0 MISS:          0 MSHR_MERGE:          0
cpu1->cpu1_L1D PREFETCH     ACCESS:          0 HIT:          0 MISS:          0 MSHR_MERGE:          0
cpu1->cpu1_L1D WRITE        ACCESS:          0 HIT:          0 MISS:          0 MSHR_MERGE:          0
cpu1->cpu1_L1D TRANSLATION  ACCESS:        339 HIT:        142 MISS:        197 MSHR_MERGE:          0
cpu1->cpu1_L1D PREFETCH REQUESTED:          0 ISSUED:          0 USEFUL:          0 USELESS:          0
cpu1->cpu1_L1D AVERAGE MISS LATENCY: 197.8 cycles
cpu1_L1D COHERENCE INVALIDATIONS:          0
cpu1_L1D COHERENCE WRITE-HIT OTHER-SHARER EVENTS:          0
cpu1->cpu1_ITLB TOTAL        ACCESS:   60497184 HIT:   59315814 MISS:    1181370 MSHR_MERGE:      60295
cpu1->cpu1_ITLB LOAD         ACCESS:   60497184 HIT:   59315814 MISS:    1181370 MSHR_MERGE:      60295
cpu1->cpu1_ITLB RFO          ACCESS:          0 HIT:          0 MISS:          0 MSHR_MERGE:          0
cpu1->cpu1_ITLB PREFETCH     ACCESS:          0 HIT:          0 MISS:          0 MSHR_MERGE:          0
cpu1->cpu1_ITLB WRITE        ACCESS:          0 HIT:          0 MISS:          0 MSHR_MERGE:          0
cpu1->cpu1_ITLB TRANSLATION  ACCESS:          0 HIT:          0 MISS:          0 MSHR_MERGE:          0
cpu1->cpu1_ITLB PREFETCH REQUESTED:          0 ISSUED:          0 USEFUL:          0 USELESS:          0
cpu1->cpu1_ITLB AVERAGE MISS LATENCY: 4.089 cycles
cpu1_ITLB COHERENCE INVALIDATIONS:          0
cpu1_ITLB COHERENCE WRITE-HIT OTHER-SHARER EVENTS:          0
cpu1_DTLB COHERENCE INVALIDATIONS:          0
cpu1_DTLB COHERENCE WRITE-HIT OTHER-SHARER EVENTS:          0
cpu0->cpu0_STLB TOTAL        ACCESS:    3018110 HIT:    3005163 MISS:      12947 MSHR_MERGE:          0
cpu0->cpu0_STLB LOAD         ACCESS:    3018110 HIT:    3005163 MISS:      12947 MSHR_MERGE:          0
cpu0->cpu0_STLB RFO          ACCESS:          0 HIT:          0 MISS:          0 MSHR_MERGE:          0
cpu0->cpu0_STLB PREFETCH     ACCESS:          0 HIT:          0 MISS:          0 MSHR_MERGE:          0
cpu0->cpu0_STLB WRITE        ACCESS:          0 HIT:          0 MISS:          0 MSHR_MERGE:          0
cpu0->cpu0_STLB TRANSLATION  ACCESS:          0 HIT:          0 MISS:          0 MSHR_MERGE:          0
cpu0->cpu0_STLB PREFETCH REQUESTED:          0 ISSUED:          0 USEFUL:          0 USELESS:          0
cpu0->cpu0_STLB AVERAGE MISS LATENCY: 259.5 cycles
cpu0_STLB COHERENCE INVALIDATIONS:          0
cpu0_STLB COHERENCE WRITE-HIT OTHER-SHARER EVENTS:          0
cpu0->cpu0_L2C TOTAL        ACCESS:    4709918 HIT:    4299196 MISS:     410722 MSHR_MERGE:          0
cpu0->cpu0_L2C LOAD         ACCESS:    3758906 HIT:    3413796 MISS:     345110 MSHR_MERGE:          0
cpu0->cpu0_L2C RFO          ACCESS:     343726 HIT:     292034 MISS:      51692 MSHR_MERGE:          0
cpu0->cpu0_L2C PREFETCH     ACCESS:          0 HIT:          0 MISS:          0 MSHR_MERGE:          0
cpu0->cpu0_L2C WRITE        ACCESS:     579055 HIT:     578772 MISS:        283 MSHR_MERGE:          0
cpu0->cpu0_L2C TRANSLATION  ACCESS:      28231 HIT:      14594 MISS:      13637 MSHR_MERGE:          0
cpu0->cpu0_L2C PREFETCH REQUESTED:          0 ISSUED:          0 USEFUL:          0 USELESS:          0
cpu0->cpu0_L2C AVERAGE MISS LATENCY: 122.2 cycles
cpu0_L2C COHERENCE INVALIDATIONS:          0
cpu0_L2C COHERENCE WRITE-HIT OTHER-SHARER EVENTS:          0
cpu0->cpu0_L1I TOTAL        ACCESS:   25986514 HIT:   25986495 MISS:         19 MSHR_MERGE:          6
cpu0->cpu0_L1I LOAD         ACCESS:   25986514 HIT:   25986495 MISS:         19 MSHR_MERGE:          6
cpu0->cpu0_L1I RFO          ACCESS:          0 HIT:          0 MISS:          0 MSHR_MERGE:          0
cpu0->cpu0_L1I PREFETCH     ACCESS:          0 HIT:          0 MISS:          0 MSHR_MERGE:          0
cpu0->cpu0_L1I WRITE        ACCESS:          0 HIT:          0 MISS:          0 MSHR_MERGE:          0
cpu0->cpu0_L1I TRANSLATION  ACCESS:          0 HIT:          0 MISS:          0 MSHR_MERGE:          0
cpu0->cpu0_L1I PREFETCH REQUESTED:          0 ISSUED:          0 USEFUL:          0 USELESS:          0
cpu0->cpu0_L1I AVERAGE MISS LATENCY: 198.2 cycles
cpu0_L1I COHERENCE INVALIDATIONS:          0
cpu0_L1I COHERENCE WRITE-HIT OTHER-SHARER EVENTS:          0
cpu0->cpu0_L1D TOTAL        ACCESS:   63887070 HIT:   59677682 MISS:    4209388 MSHR_MERGE:      78250
cpu0->cpu0_L1D LOAD         ACCESS:   16840855 HIT:   13072328 MISS:    3768527 MSHR_MERGE:       9583
cpu0->cpu0_L1D RFO          ACCESS:          0 HIT:          0 MISS:          0 MSHR_MERGE:          0
cpu0->cpu0_L1D PREFETCH     ACCESS:          0 HIT:          0 MISS:          0 MSHR_MERGE:          0
cpu0->cpu0_L1D WRITE        ACCESS:   47014834 HIT:   46602209 MISS:     412625 MSHR_MERGE:      68662
cpu0->cpu0_L1D TRANSLATION  ACCESS:      31381 HIT:       3145 MISS:      28236 MSHR_MERGE:          5
cpu0->cpu0_L1D PREFETCH REQUESTED:          0 ISSUED:          0 USEFUL:          0 USELESS:          0
cpu0->cpu0_L1D AVERAGE MISS LATENCY: 19.25 cycles
cpu0_L1D COHERENCE INVALIDATIONS:          0
cpu0_L1D COHERENCE WRITE-HIT OTHER-SHARER EVENTS:          0
cpu0->cpu0_ITLB TOTAL        ACCESS:   23752503 HIT:   23752503 MISS:          0 MSHR_MERGE:          0
cpu0->cpu0_ITLB LOAD         ACCESS:   23752503 HIT:   23752503 MISS:          0 MSHR_MERGE:          0
cpu0->cpu0_ITLB RFO          ACCESS:          0 HIT:          0 MISS:          0 MSHR_MERGE:          0
cpu0->cpu0_ITLB PREFETCH     ACCESS:          0 HIT:          0 MISS:          0 MSHR_MERGE:          0
cpu0->cpu0_ITLB WRITE        ACCESS:          0 HIT:          0 MISS:          0 MSHR_MERGE:          0
cpu0->cpu0_ITLB TRANSLATION  ACCESS:          0 HIT:          0 MISS:          0 MSHR_MERGE:          0
cpu0->cpu0_ITLB PREFETCH REQUESTED:          0 ISSUED:          0 USEFUL:          0 USELESS:          0
cpu0->cpu0_ITLB AVERAGE MISS LATENCY: - cycles
cpu0_ITLB COHERENCE INVALIDATIONS:          0
cpu0_ITLB COHERENCE WRITE-HIT OTHER-SHARER EVENTS:          0
cpu0->cpu0_DTLB TOTAL        ACCESS:   62049427 HIT:   58860784 MISS:    3188643 MSHR_MERGE:     170533
cpu0->cpu0_DTLB LOAD         ACCESS:   62049427 HIT:   58860784 MISS:    3188643 MSHR_MERGE:     170533
cpu0->cpu0_DTLB RFO          ACCESS:          0 HIT:          0 MISS:          0 MSHR_MERGE:          0
cpu0->cpu0_DTLB PREFETCH     ACCESS:          0 HIT:          0 MISS:          0 MSHR_MERGE:          0
cpu0->cpu0_DTLB WRITE        ACCESS:          0 HIT:          0 MISS:          0 MSHR_MERGE:          0
cpu0->cpu0_DTLB TRANSLATION  ACCESS:          0 HIT:          0 MISS:          0 MSHR_MERGE:          0
cpu0->cpu0_DTLB PREFETCH REQUESTED:          0 ISSUED:          0 USEFUL:          0 USELESS:          0
cpu0->cpu0_DTLB AVERAGE MISS LATENCY: 5.118 cycles
cpu0_DTLB COHERENCE INVALIDATIONS:          0
cpu0_DTLB COHERENCE WRITE-HIT OTHER-SHARER EVENTS:          0
cpu0->LLC TOTAL        ACCESS:     514478 HIT:     248966 MISS:     265512 MSHR_MERGE:      31301
cpu0->LLC LOAD         ACCESS:     345110 HIT:     166818 MISS:     178292 MSHR_MERGE:      25499
cpu0->LLC RFO          ACCESS:      51692 HIT:      23324 MISS:      28368 MSHR_MERGE:       5802
cpu0->LLC PREFETCH     ACCESS:          0 HIT:          0 MISS:          0 MSHR_MERGE:          0
cpu0->LLC WRITE        ACCESS:     104039 HIT:      58031 MISS:      46008 MSHR_MERGE:          0
cpu0->LLC TRANSLATION  ACCESS:      13637 HIT:        793 MISS:      12844 MSHR_MERGE:          0
cpu0->LLC PREFETCH REQUESTED:          0 ISSUED:          0 USEFUL:          0 USELESS:          0
cpu0->LLC AVERAGE MISS LATENCY: 654.3 cycles
cpu1->LLC TOTAL        ACCESS:     286349 HIT:     129902 MISS:     156447 MSHR_MERGE:      25602
cpu1->LLC LOAD         ACCESS:     286152 HIT:     129902 MISS:     156250 MSHR_MERGE:      25602
cpu1->LLC RFO          ACCESS:          0 HIT:          0 MISS:          0 MSHR_MERGE:          0
cpu1->LLC PREFETCH     ACCESS:          0 HIT:          0 MISS:          0 MSHR_MERGE:          0
cpu1->LLC WRITE        ACCESS:          0 HIT:          0 MISS:          0 MSHR_MERGE:          0
cpu1->LLC TRANSLATION  ACCESS:        197 HIT:          0 MISS:        197 MSHR_MERGE:          0
cpu1->LLC PREFETCH REQUESTED:          0 ISSUED:          0 USEFUL:          0 USELESS:          0
cpu1->LLC AVERAGE MISS LATENCY: 1953 cycles
cpu2->LLC TOTAL        ACCESS:         54 HIT:          1 MISS:         53 MSHR_MERGE:          1
cpu2->LLC LOAD         ACCESS:         34 HIT:          1 MISS:         33 MSHR_MERGE:          1
cpu2->LLC RFO          ACCESS:          0 HIT:          0 MISS:          0 MSHR_MERGE:          0
cpu2->LLC PREFETCH     ACCESS:          0 HIT:          0 MISS:          0 MSHR_MERGE:          0
cpu2->LLC WRITE        ACCESS:          0 HIT:          0 MISS:          0 MSHR_MERGE:          0
cpu2->LLC TRANSLATION  ACCESS:         20 HIT:          0 MISS:         20 MSHR_MERGE:          0
cpu2->LLC PREFETCH REQUESTED:          0 ISSUED:          0 USEFUL:          0 USELESS:          0
cpu2->LLC AVERAGE MISS LATENCY: 1.997e+06 cycles
cpu3->LLC TOTAL        ACCESS:         54 HIT:          0 MISS:         54 MSHR_MERGE:         10
cpu3->LLC LOAD         ACCESS:         34 HIT:          0 MISS:         34 MSHR_MERGE:         10
cpu3->LLC RFO          ACCESS:          0 HIT:          0 MISS:          0 MSHR_MERGE:          0
cpu3->LLC PREFETCH     ACCESS:          0 HIT:          0 MISS:          0 MSHR_MERGE:          0
cpu3->LLC WRITE        ACCESS:          0 HIT:          0 MISS:          0 MSHR_MERGE:          0
cpu3->LLC TRANSLATION  ACCESS:         20 HIT:          0 MISS:         20 MSHR_MERGE:          0
cpu3->LLC PREFETCH REQUESTED:          0 ISSUED:          0 USEFUL:          0 USELESS:          0
cpu3->LLC AVERAGE MISS LATENCY: 2.448e+06 cycles
cpu4->LLC TOTAL        ACCESS:     514597 HIT:     280139 MISS:     234458 MSHR_MERGE:     149501
cpu4->LLC LOAD         ACCESS:     345077 HIT:     189644 MISS:     155433 MSHR_MERGE:     127953
cpu4->LLC RFO          ACCESS:      51720 HIT:      24277 MISS:      27443 MSHR_MERGE:      21548
cpu4->LLC PREFETCH     ACCESS:          0 HIT:          0 MISS:          0 MSHR_MERGE:          0
cpu4->LLC WRITE        ACCESS:     104022 HIT:      65380 MISS:      38642 MSHR_MERGE:          0
cpu4->LLC TRANSLATION  ACCESS:      13778 HIT:        838 MISS:      12940 MSHR_MERGE:          0
cpu4->LLC PREFETCH REQUESTED:          0 ISSUED:          0 USEFUL:          0 USELESS:          0
cpu4->LLC AVERAGE MISS LATENCY: 373.6 cycles
cpu5->LLC TOTAL        ACCESS:     286732 HIT:     142608 MISS:     144124 MSHR_MERGE:     117578
cpu5->LLC LOAD         ACCESS:     286535 HIT:     142608 MISS:     143927 MSHR_MERGE:     117578
cpu5->LLC RFO          ACCESS:          0 HIT:          0 MISS:          0 MSHR_MERGE:          0
cpu5->LLC PREFETCH     ACCESS:          0 HIT:          0 MISS:          0 MSHR_MERGE:          0
cpu5->LLC WRITE        ACCESS:          0 HIT:          0 MISS:          0 MSHR_MERGE:          0
cpu5->LLC TRANSLATION  ACCESS:        197 HIT:          0 MISS:        197 MSHR_MERGE:          0
cpu5->LLC PREFETCH REQUESTED:          0 ISSUED:          0 USEFUL:          0 USELESS:          0
cpu5->LLC AVERAGE MISS LATENCY: 640.4 cycles
cpu6->LLC TOTAL        ACCESS:         54 HIT:         18 MISS:         36 MSHR_MERGE:         15
cpu6->LLC LOAD         ACCESS:         34 HIT:         18 MISS:         16 MSHR_MERGE:         15
cpu6->LLC RFO          ACCESS:          0 HIT:          0 MISS:          0 MSHR_MERGE:          0
cpu6->LLC PREFETCH     ACCESS:          0 HIT:          0 MISS:          0 MSHR_MERGE:          0
cpu6->LLC WRITE        ACCESS:          0 HIT:          0 MISS:          0 MSHR_MERGE:          0
cpu6->LLC TRANSLATION  ACCESS:         20 HIT:          0 MISS:         20 MSHR_MERGE:          0
cpu6->LLC PREFETCH REQUESTED:          0 ISSUED:          0 USEFUL:          0 USELESS:          0
cpu6->LLC AVERAGE MISS LATENCY: 2.169e+06 cycles
cpu7->LLC TOTAL        ACCESS:         54 HIT:          1 MISS:         53 MSHR_MERGE:         23
cpu7->LLC LOAD         ACCESS:         34 HIT:          1 MISS:         33 MSHR_MERGE:         23
cpu7->LLC RFO          ACCESS:          0 HIT:          0 MISS:          0 MSHR_MERGE:          0
cpu7->LLC PREFETCH     ACCESS:          0 HIT:          0 MISS:          0 MSHR_MERGE:          0
cpu7->LLC WRITE        ACCESS:          0 HIT:          0 MISS:          0 MSHR_MERGE:          0
cpu7->LLC TRANSLATION  ACCESS:         20 HIT:          0 MISS:         20 MSHR_MERGE:          0
cpu7->LLC PREFETCH REQUESTED:          0 ISSUED:          0 USEFUL:          0 USELESS:          0
cpu7->LLC AVERAGE MISS LATENCY: 1.765e+06 cycles
LLC COHERENCE INVALIDATIONS:     169181
LLC COHERENCE WRITE-HIT OTHER-SHARER EVENTS:     122573

DRAM Statistics

Channel 0 RQ ROW_BUFFER_HIT:       2450
  ROW_BUFFER_MISS:     389567
  AVG DBUS CONGESTED CYCLE: 13.02
Channel 0 WQ ROW_BUFFER_HIT:      16294
  ROW_BUFFER_MISS:      66971
  FULL:         10
Channel 0 REFRESHES ISSUED:      13088

VMEM ALIASED FILLS (cross-CPU shared-page hits): 26709
