[VMEM] WARNING: physical memory size is smaller than virtual memory size.

*** ChampSim Multicore Out-of-Order Simulator ***
Warmup Instructions: 50000000
Simulation Instructions: 100000000
Number of CPUs: 8
Page size: 4096

Off-chip DRAM Size: 16 GiB Channels: 1 Width: 64-bit Data Rate: 3205 MT/s
*** Reached end of trace: (2, "traces/canneal_big2.champsimtrace")
*** Reached end of trace: (7, "traces/canneal_big2.champsimtrace")
*** Reached end of trace: (4, "traces/canneal_big4.champsimtrace")
*** Reached end of trace: (3, "traces/canneal_big3.champsimtrace")
*** Reached end of trace: (5, "traces/canneal_big0.champsimtrace")
*** Reached end of trace: (0, "traces/canneal_big0.champsimtrace")
*** Reached end of trace: (2, "traces/canneal_big2.champsimtrace")
*** Reached end of trace: (7, "traces/canneal_big2.champsimtrace")
*** Reached end of trace: (4, "traces/canneal_big4.champsimtrace")
*** Reached end of trace: (3, "traces/canneal_big3.champsimtrace")
Heartbeat CPU 2 instructions: 10000001 cycles: 2505209 heartbeat IPC: 3.992 cumulative IPC: 3.992 (Simulation time: 00 hr 07 min 39 sec)
Heartbeat CPU 7 instructions: 10000001 cycles: 2505215 heartbeat IPC: 3.992 cumulative IPC: 3.992 (Simulation time: 00 hr 07 min 39 sec)
Heartbeat CPU 4 instructions: 10000001 cycles: 2505240 heartbeat IPC: 3.992 cumulative IPC: 3.992 (Simulation time: 00 hr 07 min 39 sec)
Heartbeat CPU 3 instructions: 10000001 cycles: 2505262 heartbeat IPC: 3.992 cumulative IPC: 3.992 (Simulation time: 00 hr 07 min 39 sec)
*** Reached end of trace: (2, "traces/canneal_big2.champsimtrace")
*** Reached end of trace: (7, "traces/canneal_big2.champsimtrace")
*** Reached end of trace: (4, "traces/canneal_big4.champsimtrace")
*** Reached end of trace: (3, "traces/canneal_big3.champsimtrace")
*** Reached end of trace: (0, "traces/canneal_big0.champsimtrace")
Heartbeat CPU 0 instructions: 10000003 cycles: 4084761 heartbeat IPC: 2.448 cumulative IPC: 2.448 (Simulation time: 00 hr 11 min 59 sec)
*** Reached end of trace: (5, "traces/canneal_big0.champsimtrace")
Heartbeat CPU 5 instructions: 10000003 cycles: 4085957 heartbeat IPC: 2.447 cumulative IPC: 2.447 (Simulation time: 00 hr 11 min 59 sec)
*** Reached end of trace: (2, "traces/canneal_big2.champsimtrace")
*** Reached end of trace: (7, "traces/canneal_big2.champsimtrace")
*** Reached end of trace: (4, "traces/canneal_big4.champsimtrace")
*** Reached end of trace: (3, "traces/canneal_big3.champsimtrace")
Heartbeat CPU 2 instructions: 20000001 cycles: 5005209 heartbeat IPC: 4 cumulative IPC: 3.996 (Simulation time: 00 hr 14 min 33 sec)
Heartbeat CPU 7 instructions: 20000001 cycles: 5005215 heartbeat IPC: 4 cumulative IPC: 3.996 (Simulation time: 00 hr 14 min 33 sec)
Heartbeat CPU 4 instructions: 20000001 cycles: 5005240 heartbeat IPC: 4 cumulative IPC: 3.996 (Simulation time: 00 hr 14 min 33 sec)
Heartbeat CPU 3 instructions: 20000001 cycles: 5005262 heartbeat IPC: 4 cumulative IPC: 3.996 (Simulation time: 00 hr 14 min 33 sec)
*** Reached end of trace: (1, "traces/canneal_big1.champsimtrace")
*** Reached end of trace: (6, "traces/canneal_big1.champsimtrace")
*** Reached end of trace: (0, "traces/canneal_big0.champsimtrace")
*** Reached end of trace: (5, "traces/canneal_big0.champsimtrace")
*** Reached end of trace: (2, "traces/canneal_big2.champsimtrace")
*** Reached end of trace: (7, "traces/canneal_big2.champsimtrace")
*** Reached end of trace: (4, "traces/canneal_big4.champsimtrace")
*** Reached end of trace: (3, "traces/canneal_big3.champsimtrace")
*** Reached end of trace: (2, "traces/canneal_big2.champsimtrace")
*** Reached end of trace: (7, "traces/canneal_big2.champsimtrace")
*** Reached end of trace: (4, "traces/canneal_big4.champsimtrace")
*** Reached end of trace: (3, "traces/canneal_big3.champsimtrace")
Heartbeat CPU 2 instructions: 30000001 cycles: 7505209 heartbeat IPC: 4 cumulative IPC: 3.997 (Simulation time: 00 hr 21 min 49 sec)
Heartbeat CPU 7 instructions: 30000001 cycles: 7505215 heartbeat IPC: 4 cumulative IPC: 3.997 (Simulation time: 00 hr 21 min 49 sec)
Heartbeat CPU 4 instructions: 30000001 cycles: 7505240 heartbeat IPC: 4 cumulative IPC: 3.997 (Simulation time: 00 hr 21 min 49 sec)
Heartbeat CPU 3 instructions: 30000001 cycles: 7505262 heartbeat IPC: 4 cumulative IPC: 3.997 (Simulation time: 00 hr 21 min 49 sec)
*** Reached end of trace: (1, "traces/canneal_big1.champsimtrace")
Heartbeat CPU 1 instructions: 10000002 cycles: 7857487 heartbeat IPC: 1.273 cumulative IPC: 1.273 (Simulation time: 00 hr 22 min 54 sec)
*** Reached end of trace: (6, "traces/canneal_big1.champsimtrace")
Heartbeat CPU 6 instructions: 10000002 cycles: 7899667 heartbeat IPC: 1.266 cumulative IPC: 1.266 (Simulation time: 00 hr 23 min 02 sec)
*** Reached end of trace: (0, "traces/canneal_big0.champsimtrace")
Heartbeat CPU 0 instructions: 20000006 cycles: 7930920 heartbeat IPC: 2.6 cumulative IPC: 2.522 (Simulation time: 00 hr 23 min 08 sec)
*** Reached end of trace: (5, "traces/canneal_big0.champsimtrace")
Heartbeat CPU 5 instructions: 20000006 cycles: 7940086 heartbeat IPC: 2.595 cumulative IPC: 2.519 (Simulation time: 00 hr 23 min 10 sec)
*** Reached end of trace: (2, "traces/canneal_big2.champsimtrace")
*** Reached end of trace: (7, "traces/canneal_big2.champsimtrace")
*** Reached end of trace: (4, "traces/canneal_big4.champsimtrace")
*** Reached end of trace: (3, "traces/canneal_big3.champsimtrace")
*** Reached end of trace: (0, "traces/canneal_big0.champsimtrace")
*** Reached end of trace: (5, "traces/canneal_big0.champsimtrace")
*** Reached end of trace: (2, "traces/canneal_big2.champsimtrace")
*** Reached end of trace: (7, "traces/canneal_big2.champsimtrace")
*** Reached end of trace: (4, "traces/canneal_big4.champsimtrace")
*** Reached end of trace: (3, "traces/canneal_big3.champsimtrace")
Heartbeat CPU 2 instructions: 40000001 cycles: 10005209 heartbeat IPC: 4 cumulative IPC: 3.998 (Simulation time: 00 hr 29 min 28 sec)
Heartbeat CPU 7 instructions: 40000001 cycles: 10005215 heartbeat IPC: 4 cumulative IPC: 3.998 (Simulation time: 00 hr 29 min 28 sec)
Heartbeat CPU 4 instructions: 40000001 cycles: 10005240 heartbeat IPC: 4 cumulative IPC: 3.998 (Simulation time: 00 hr 29 min 28 sec)
Heartbeat CPU 3 instructions: 40000001 cycles: 10005262 heartbeat IPC: 4 cumulative IPC: 3.998 (Simulation time: 00 hr 29 min 28 sec)
*** Reached end of trace: (1, "traces/canneal_big1.champsimtrace")
*** Reached end of trace: (6, "traces/canneal_big1.champsimtrace")
*** Reached end of trace: (2, "traces/canneal_big2.champsimtrace")
*** Reached end of trace: (7, "traces/canneal_big2.champsimtrace")
*** Reached end of trace: (4, "traces/canneal_big4.champsimtrace")
*** Reached end of trace: (3, "traces/canneal_big3.champsimtrace")
*** Reached end of trace: (0, "traces/canneal_big0.champsimtrace")
Heartbeat CPU 0 instructions: 30000009 cycles: 11777001 heartbeat IPC: 2.6 cumulative IPC: 2.547 (Simulation time: 00 hr 35 min 23 sec)
*** Reached end of trace: (5, "traces/canneal_big0.champsimtrace")
Heartbeat CPU 5 instructions: 30000009 cycles: 11794137 heartbeat IPC: 2.595 cumulative IPC: 2.544 (Simulation time: 00 hr 35 min 27 sec)
*** Reached end of trace: (2, "traces/canneal_big2.champsimtrace")
*** Reached end of trace: (7, "traces/canneal_big2.champsimtrace")
*** Reached end of trace: (4, "traces/canneal_big4.champsimtrace")
*** Reached end of trace: (3, "traces/canneal_big3.champsimtrace")
Heartbeat CPU 2 instructions: 50000001 cycles: 12505209 heartbeat IPC: 4 cumulative IPC: 3.998 (Simulation time: 00 hr 37 min 57 sec)
Warmup finished CPU 2 instructions: 50000001 cycles: 12505209 cumulative IPC: 3.998 (Simulation time: 00 hr 37 min 57 sec)
Heartbeat CPU 7 instructions: 50000001 cycles: 12505215 heartbeat IPC: 4 cumulative IPC: 3.998 (Simulation time: 00 hr 37 min 57 sec)
Warmup finished CPU 7 instructions: 50000001 cycles: 12505215 cumulative IPC: 3.998 (Simulation time: 00 hr 37 min 57 sec)
Heartbeat CPU 4 instructions: 50000001 cycles: 12505240 heartbeat IPC: 4 cumulative IPC: 3.998 (Simulation time: 00 hr 37 min 57 sec)
Warmup finished CPU 4 instructions: 50000001 cycles: 12505240 cumulative IPC: 3.998 (Simulation time: 00 hr 37 min 57 sec)
Heartbeat CPU 3 instructions: 50000001 cycles: 12505262 heartbeat IPC: 4 cumulative IPC: 3.998 (Simulation time: 00 hr 37 min 57 sec)
Warmup finished CPU 3 instructions: 50000001 cycles: 12505262 cumulative IPC: 3.998 (Simulation time: 00 hr 37 min 57 sec)
*** Reached end of trace: (1, "traces/canneal_big1.champsimtrace")
Heartbeat CPU 1 instructions: 20000004 cycles: 13550619 heartbeat IPC: 1.757 cumulative IPC: 1.476 (Simulation time: 00 hr 41 min 18 sec)
*** Reached end of trace: (6, "traces/canneal_big1.champsimtrace")
Heartbeat CPU 6 instructions: 20000004 cycles: 13633000 heartbeat IPC: 1.744 cumulative IPC: 1.467 (Simulation time: 00 hr 41 min 32 sec)
*** Reached end of trace: (0, "traces/canneal_big0.champsimtrace")
*** Reached end of trace: (5, "traces/canneal_big0.champsimtrace")
*** Reached end of trace: (2, "traces/canneal_big2.champsimtrace")
*** Reached end of trace: (7, "traces/canneal_big2.champsimtrace")
*** Reached end of trace: (4, "traces/canneal_big4.champsimtrace")
*** Reached end of trace: (3, "traces/canneal_big3.champsimtrace")
*** Reached end of trace: (2, "traces/canneal_big2.champsimtrace")
*** Reached end of trace: (7, "traces/canneal_big2.champsimtrace")
*** Reached end of trace: (4, "traces/canneal_big4.champsimtrace")
*** Reached end of trace: (3, "traces/canneal_big3.champsimtrace")
Heartbeat CPU 2 instructions: 60000001 cycles: 15005209 heartbeat IPC: 4 cumulative IPC: 3.999 (Simulation time: 00 hr 45 min 23 sec)
Heartbeat CPU 7 instructions: 60000001 cycles: 15005215 heartbeat IPC: 4 cumulative IPC: 3.999 (Simulation time: 00 hr 45 min 23 sec)
Heartbeat CPU 4 instructions: 60000001 cycles: 15005240 heartbeat IPC: 4 cumulative IPC: 3.999 (Simulation time: 00 hr 45 min 23 sec)
Heartbeat CPU 3 instructions: 60000001 cycles: 15005262 heartbeat IPC: 4 cumulative IPC: 3.999 (Simulation time: 00 hr 45 min 23 sec)
*** Reached end of trace: (0, "traces/canneal_big0.champsimtrace")
Heartbeat CPU 0 instructions: 40000012 cycles: 15623082 heartbeat IPC: 2.6 cumulative IPC: 2.56 (Simulation time: 00 hr 47 min 01 sec)
*** Reached end of trace: (5, "traces/canneal_big0.champsimtrace")
Heartbeat CPU 5 instructions: 40000012 cycles: 15648118 heartbeat IPC: 2.595 cumulative IPC: 2.556 (Simulation time: 00 hr 47 min 05 sec)
*** Reached end of trace: (2, "traces/canneal_big2.champsimtrace")
*** Reached end of trace: (7, "traces/canneal_big2.champsimtrace")
*** Reached end of trace: (4, "traces/canneal_big4.champsimtrace")
*** Reached end of trace: (3, "traces/canneal_big3.champsimtrace")
*** Reached end of trace: (1, "traces/canneal_big1.champsimtrace")
*** Reached end of trace: (6, "traces/canneal_big1.champsimtrace")
*** Reached end of trace: (2, "traces/canneal_big2.champsimtrace")
*** Reached end of trace: (7, "traces/canneal_big2.champsimtrace")
*** Reached end of trace: (4, "traces/canneal_big4.champsimtrace")
*** Reached end of trace: (3, "traces/canneal_big3.champsimtrace")
Heartbeat CPU 2 instructions: 70000001 cycles: 17505209 heartbeat IPC: 4 cumulative IPC: 3.999 (Simulation time: 00 hr 51 min 44 sec)
Heartbeat CPU 7 instructions: 70000001 cycles: 17505215 heartbeat IPC: 4 cumulative IPC: 3.999 (Simulation time: 00 hr 51 min 44 sec)
Heartbeat CPU 4 instructions: 70000001 cycles: 17505240 heartbeat IPC: 4 cumulative IPC: 3.999 (Simulation time: 00 hr 51 min 44 sec)
Heartbeat CPU 3 instructions: 70000001 cycles: 17505262 heartbeat IPC: 4 cumulative IPC: 3.999 (Simulation time: 00 hr 51 min 44 sec)
*** Reached end of trace: (0, "traces/canneal_big0.champsimtrace")
*** Reached end of trace: (5, "traces/canneal_big0.champsimtrace")
*** Reached end of trace: (2, "traces/canneal_big2.champsimtrace")
*** Reached end of trace: (7, "traces/canneal_big2.champsimtrace")
*** Reached end of trace: (4, "traces/canneal_big4.champsimtrace")
*** Reached end of trace: (3, "traces/canneal_big3.champsimtrace")
*** Reached end of trace: (1, "traces/canneal_big1.champsimtrace")
Heartbeat CPU 1 instructions: 30000004 cycles: 19243740 heartbeat IPC: 1.757 cumulative IPC: 1.559 (Simulation time: 00 hr 57 min 03 sec)
*** Reached end of trace: (6, "traces/canneal_big1.champsimtrace")
Heartbeat CPU 6 instructions: 30000004 cycles: 19366321 heartbeat IPC: 1.744 cumulative IPC: 1.549 (Simulation time: 00 hr 57 min 25 sec)
*** Reached end of trace: (0, "traces/canneal_big0.champsimtrace")
Warmup finished CPU 0 instructions: 50000000 cycles: 19469160 cumulative IPC: 2.568 (Simulation time: 00 hr 57 min 45 sec)
Heartbeat CPU 0 instructions: 50000015 cycles: 19469163 heartbeat IPC: 2.6 cumulative IPC: 2.568 (Simulation time: 00 hr 57 min 45 sec)
*** Reached end of trace: (5, "traces/canneal_big0.champsimtrace")
Warmup finished CPU 5 instructions: 50000000 cycles: 19502166 cumulative IPC: 2.564 (Simulation time: 00 hr 57 min 52 sec)
Heartbeat CPU 5 instructions: 50000015 cycles: 19502169 heartbeat IPC: 2.595 cumulative IPC: 2.564 (Simulation time: 00 hr 57 min 52 sec)
*** Reached end of trace: (2, "traces/canneal_big2.champsimtrace")
*** Reached end of trace: (7, "traces/canneal_big2.champsimtrace")
*** Reached end of trace: (4, "traces/canneal_big4.champsimtrace")
*** Reached end of trace: (3, "traces/canneal_big3.champsimtrace")
Heartbeat CPU 2 instructions: 80000001 cycles: 20005209 heartbeat IPC: 4 cumulative IPC: 3.999 (Simulation time: 00 hr 59 min 33 sec)
Heartbeat CPU 7 instructions: 80000001 cycles: 20005215 heartbeat IPC: 4 cumulative IPC: 3.999 (Simulation time: 00 hr 59 min 33 sec)
Heartbeat CPU 4 instructions: 80000001 cycles: 20005240 heartbeat IPC: 4 cumulative IPC: 3.999 (Simulation time: 00 hr 59 min 33 sec)
Heartbeat CPU 3 instructions: 80000001 cycles: 20005262 heartbeat IPC: 4 cumulative IPC: 3.999 (Simulation time: 00 hr 59 min 33 sec)
*** Reached end of trace: (2, "traces/canneal_big2.champsimtrace")
*** Reached end of trace: (7, "traces/canneal_big2.champsimtrace")
*** Reached end of trace: (4, "traces/canneal_big4.champsimtrace")
*** Reached end of trace: (3, "traces/canneal_big3.champsimtrace")
*** Reached end of trace: (0, "traces/canneal_big0.champsimtrace")
*** Reached end of trace: (5, "traces/canneal_big0.champsimtrace")
*** Reached end of trace: (1, "traces/canneal_big1.champsimtrace")
*** Reached end of trace: (6, "traces/canneal_big1.champsimtrace")
*** Reached end of trace: (2, "traces/canneal_big2.champsimtrace")
*** Reached end of trace: (7, "traces/canneal_big2.champsimtrace")
*** Reached end of trace: (4, "traces/canneal_big4.champsimtrace")
*** Reached end of trace: (3, "traces/canneal_big3.champsimtrace")
Heartbeat CPU 2 instructions: 90000001 cycles: 22505209 heartbeat IPC: 4 cumulative IPC: 3.999 (Simulation time: 01 hr 07 min 06 sec)
Heartbeat CPU 7 instructions: 90000001 cycles: 22505215 heartbeat IPC: 4 cumulative IPC: 3.999 (Simulation time: 01 hr 07 min 06 sec)
Heartbeat CPU 4 instructions: 90000001 cycles: 22505240 heartbeat IPC: 4 cumulative IPC: 3.999 (Simulation time: 01 hr 07 min 06 sec)
Heartbeat CPU 3 instructions: 90000001 cycles: 22505262 heartbeat IPC: 4 cumulative IPC: 3.999 (Simulation time: 01 hr 07 min 06 sec)
*** Reached end of trace: (0, "traces/canneal_big0.champsimtrace")
Heartbeat CPU 0 instructions: 60000018 cycles: 23315244 heartbeat IPC: 2.6 cumulative IPC: 2.573 (Simulation time: 01 hr 09 min 25 sec)
*** Reached end of trace: (5, "traces/canneal_big0.champsimtrace")
Heartbeat CPU 5 instructions: 60000018 cycles: 23356220 heartbeat IPC: 2.595 cumulative IPC: 2.569 (Simulation time: 01 hr 09 min 32 sec)
*** Reached end of trace: (2, "traces/canneal_big2.champsimtrace")
*** Reached end of trace: (7, "traces/canneal_big2.champsimtrace")
*** Reached end of trace: (4, "traces/canneal_big4.champsimtrace")
*** Reached end of trace: (3, "traces/canneal_big3.champsimtrace")
*** Reached end of trace: (1, "traces/canneal_big1.champsimtrace")
Heartbeat CPU 1 instructions: 40000006 cycles: 24936881 heartbeat IPC: 1.756 cumulative IPC: 1.604 (Simulation time: 01 hr 14 min 28 sec)
*** Reached end of trace: (2, "traces/canneal_big2.champsimtrace")
*** Reached end of trace: (7, "traces/canneal_big2.champsimtrace")
*** Reached end of trace: (4, "traces/canneal_big4.champsimtrace")
*** Reached end of trace: (3, "traces/canneal_big3.champsimtrace")
Heartbeat CPU 2 instructions: 100000001 cycles: 25005209 heartbeat IPC: 4 cumulative IPC: 3.999 (Simulation time: 01 hr 14 min 41 sec)
Heartbeat CPU 7 instructions: 100000001 cycles: 25005215 heartbeat IPC: 4 cumulative IPC: 3.999 (Simulation time: 01 hr 14 min 41 sec)
Heartbeat CPU 4 instructions: 100000001 cycles: 25005240 heartbeat IPC: 4 cumulative IPC: 3.999 (Simulation time: 01 hr 14 min 41 sec)
Heartbeat CPU 3 instructions: 100000001 cycles: 25005262 heartbeat IPC: 4 cumulative IPC: 3.999 (Simulation time: 01 hr 14 min 41 sec)
*** Reached end of trace: (6, "traces/canneal_big1.champsimtrace")
Heartbeat CPU 6 instructions: 40000006 cycles: 25099660 heartbeat IPC: 1.744 cumulative IPC: 1.594 (Simulation time: 01 hr 15 min 00 sec)
*** Reached end of trace: (0, "traces/canneal_big0.champsimtrace")
*** Reached end of trace: (5, "traces/canneal_big0.champsimtrace")
*** Reached end of trace: (2, "traces/canneal_big2.champsimtrace")
*** Reached end of trace: (7, "traces/canneal_big2.champsimtrace")
*** Reached end of trace: (4, "traces/canneal_big4.champsimtrace")
*** Reached end of trace: (3, "traces/canneal_big3.champsimtrace")
*** Reached end of trace: (0, "traces/canneal_big0.champsimtrace")
Heartbeat CPU 0 instructions: 70000021 cycles: 27161355 heartbeat IPC: 2.6 cumulative IPC: 2.577 (Simulation time: 01 hr 21 min 46 sec)
*** Reached end of trace: (5, "traces/canneal_big0.champsimtrace")
Heartbeat CPU 5 instructions: 70000021 cycles: 27210271 heartbeat IPC: 2.595 cumulative IPC: 2.573 (Simulation time: 01 hr 21 min 56 sec)
*** Reached end of trace: (2, "traces/canneal_big2.champsimtrace")
*** Reached end of trace: (7, "traces/canneal_big2.champsimtrace")
*** Reached end of trace: (4, "traces/canneal_big4.champsimtrace")
*** Reached end of trace: (3, "traces/canneal_big3.champsimtrace")
Heartbeat CPU 2 instructions: 110000001 cycles: 27505209 heartbeat IPC: 4 cumulative IPC: 3.999 (Simulation time: 01 hr 22 min 59 sec)
Heartbeat CPU 7 instructions: 110000001 cycles: 27505215 heartbeat IPC: 4 cumulative IPC: 3.999 (Simulation time: 01 hr 22 min 59 sec)
Heartbeat CPU 4 instructions: 110000001 cycles: 27505240 heartbeat IPC: 4 cumulative IPC: 3.999 (Simulation time: 01 hr 22 min 59 sec)
Heartbeat CPU 3 instructions: 110000001 cycles: 27505262 heartbeat IPC: 4 cumulative IPC: 3.999 (Simulation time: 01 hr 22 min 59 sec)
*** Reached end of trace: (1, "traces/canneal_big1.champsimtrace")
*** Reached end of trace: (6, "traces/canneal_big1.champsimtrace")
*** Reached end of trace: (2, "traces/canneal_big2.champsimtrace")
*** Reached end of trace: (7, "traces/canneal_big2.champsimtrace")
*** Reached end of trace: (4, "traces/canneal_big4.champsimtrace")
*** Reached end of trace: (3, "traces/canneal_big3.champsimtrace")
*** Reached end of trace: (0, "traces/canneal_big0.champsimtrace")
*** Reached end of trace: (5, "traces/canneal_big0.champsimtrace")
*** Reached end of trace: (2, "traces/canneal_big2.champsimtrace")
*** Reached end of trace: (7, "traces/canneal_big2.champsimtrace")
*** Reached end of trace: (4, "traces/canneal_big4.champsimtrace")
*** Reached end of trace: (3, "traces/canneal_big3.champsimtrace")
Heartbeat CPU 2 instructions: 120000001 cycles: 30005209 heartbeat IPC: 4 cumulative IPC: 3.999 (Simulation time: 01 hr 29 min 23 sec)
Heartbeat CPU 7 instructions: 120000001 cycles: 30005215 heartbeat IPC: 4 cumulative IPC: 3.999 (Simulation time: 01 hr 29 min 23 sec)
Heartbeat CPU 4 instructions: 120000001 cycles: 30005240 heartbeat IPC: 4 cumulative IPC: 3.999 (Simulation time: 01 hr 29 min 23 sec)
Heartbeat CPU 3 instructions: 120000001 cycles: 30005262 heartbeat IPC: 4 cumulative IPC: 3.999 (Simulation time: 01 hr 29 min 23 sec)
*** Reached end of trace: (1, "traces/canneal_big1.champsimtrace")
Warmup finished CPU 1 instructions: 50000000 cycles: 30629980 cumulative IPC: 1.632 (Simulation time: 01 hr 31 min 00 sec)
Heartbeat CPU 1 instructions: 50000008 cycles: 30630002 heartbeat IPC: 1.757 cumulative IPC: 1.632 (Simulation time: 01 hr 31 min 00 sec)
*** Reached end of trace: (6, "traces/canneal_big1.champsimtrace")
Warmup finished CPU 6 instructions: 50000000 cycles: 30832961 cumulative IPC: 1.622 (Simulation time: 01 hr 31 min 32 sec)
Warmup complete CPU 7 instructions: 123310985 cycles: 30832961 cumulative IPC: 3.999 (Simulation time: 01 hr 31 min 32 sec)
Warmup complete CPU 6 instructions: 50000000 cycles: 30832961 cumulative IPC: 1.622 (Simulation time: 01 hr 31 min 32 sec)
Warmup complete CPU 5 instructions: 79442359 cycles: 30832961 cumulative IPC: 2.577 (Simulation time: 01 hr 31 min 32 sec)
Warmup complete CPU 4 instructions: 123310885 cycles: 30832961 cumulative IPC: 3.999 (Simulation time: 01 hr 31 min 32 sec)
Warmup complete CPU 3 instructions: 123310797 cycles: 30832961 cumulative IPC: 3.999 (Simulation time: 01 hr 31 min 32 sec)
Warmup complete CPU 2 instructions: 123311009 cycles: 30832961 cumulative IPC: 3.999 (Simulation time: 01 hr 31 min 32 sec)
Warmup complete CPU 1 instructions: 50310277 cycles: 30832961 cumulative IPC: 1.632 (Simulation time: 01 hr 31 min 32 sec)
Warmup complete CPU 0 instructions: 79578669 cycles: 30832961 cumulative IPC: 2.581 (Simulation time: 01 hr 31 min 32 sec)
Heartbeat CPU 6 instructions: 50000008 cycles: 30833527 heartbeat IPC: 1.744 cumulative IPC: 0.01413 (Simulation time: 01 hr 31 min 32 sec)
*** Reached end of trace: (0, "traces/canneal_big0.champsimtrace")
Heartbeat CPU 0 instructions: 80000024 cycles: 30997953 heartbeat IPC: 2.606 cumulative IPC: 2.554 (Simulation time: 01 hr 31 min 58 sec)
*** Reached end of trace: (5, "traces/canneal_big0.champsimtrace")
Heartbeat CPU 5 instructions: 80000021 cycles: 31056696 heartbeat IPC: 2.6 cumulative IPC: 2.493 (Simulation time: 01 hr 32 min 06 sec)
*** Reached end of trace: (2, "traces/canneal_big2.champsimtrace")
*** Reached end of trace: (7, "traces/canneal_big2.champsimtrace")
*** Reached end of trace: (4, "traces/canneal_big4.champsimtrace")
*** Reached end of trace: (3, "traces/canneal_big3.champsimtrace")
*** Reached end of trace: (2, "traces/canneal_big2.champsimtrace")
*** Reached end of trace: (7, "traces/canneal_big2.champsimtrace")
*** Reached end of trace: (4, "traces/canneal_big4.champsimtrace")
*** Reached end of trace: (3, "traces/canneal_big3.champsimtrace")
Heartbeat CPU 2 instructions: 130000001 cycles: 32505209 heartbeat IPC: 4 cumulative IPC: 4 (Simulation time: 01 hr 35 min 37 sec)
Heartbeat CPU 7 instructions: 130000001 cycles: 32505215 heartbeat IPC: 4 cumulative IPC: 4 (Simulation time: 01 hr 35 min 37 sec)
Heartbeat CPU 4 instructions: 130000001 cycles: 32505240 heartbeat IPC: 4 cumulative IPC: 4 (Simulation time: 01 hr 35 min 37 sec)
Heartbeat CPU 3 instructions: 130000001 cycles: 32505262 heartbeat IPC: 4 cumulative IPC: 4 (Simulation time: 01 hr 35 min 37 sec)
*** Reached end of trace: (0, "traces/canneal_big0.champsimtrace")
*** Reached end of trace: (5, "traces/canneal_big0.champsimtrace")
*** Reached end of trace: (2, "traces/canneal_big2.champsimtrace")
*** Reached end of trace: (7, "traces/canneal_big2.champsimtrace")
*** Reached end of trace: (4, "traces/canneal_big4.champsimtrace")
*** Reached end of trace: (3, "traces/canneal_big3.champsimtrace")
*** Reached end of trace: (2, "traces/canneal_big2.champsimtrace")
*** Reached end of trace: (7, "traces/canneal_big2.champsimtrace")
*** Reached end of trace: (4, "traces/canneal_big4.champsimtrace")
*** Reached end of trace: (3, "traces/canneal_big3.champsimtrace")
Heartbeat CPU 2 instructions: 140000001 cycles: 35005209 heartbeat IPC: 4 cumulative IPC: 4 (Simulation time: 01 hr 42 min 19 sec)
Heartbeat CPU 7 instructions: 140000001 cycles: 35005215 heartbeat IPC: 4 cumulative IPC: 4 (Simulation time: 01 hr 42 min 19 sec)
Heartbeat CPU 4 instructions: 140000001 cycles: 35005240 heartbeat IPC: 4 cumulative IPC: 4 (Simulation time: 01 hr 42 min 19 sec)
Heartbeat CPU 3 instructions: 140000001 cycles: 35005262 heartbeat IPC: 4 cumulative IPC: 4 (Simulation time: 01 hr 42 min 19 sec)
*** Reached end of trace: (0, "traces/canneal_big0.champsimtrace")
Heartbeat CPU 0 instructions: 90000027 cycles: 35810426 heartbeat IPC: 2.078 cumulative IPC: 2.094 (Simulation time: 01 hr 44 min 34 sec)
*** Reached end of trace: (5, "traces/canneal_big0.champsimtrace")
Heartbeat CPU 5 instructions: 90000024 cycles: 35987163 heartbeat IPC: 2.028 cumulative IPC: 2.048 (Simulation time: 01 hr 45 min 04 sec)
*** Reached end of trace: (2, "traces/canneal_big2.champsimtrace")
*** Reached end of trace: (7, "traces/canneal_big2.champsimtrace")
*** Reached end of trace: (4, "traces/canneal_big4.champsimtrace")
*** Reached end of trace: (3, "traces/canneal_big3.champsimtrace")
*** Reached end of trace: (2, "traces/canneal_big2.champsimtrace")
*** Reached end of trace: (7, "traces/canneal_big2.champsimtrace")
*** Reached end of trace: (4, "traces/canneal_big4.champsimtrace")
*** Reached end of trace: (3, "traces/canneal_big3.champsimtrace")
Heartbeat CPU 2 instructions: 150000001 cycles: 37505209 heartbeat IPC: 4 cumulative IPC: 4 (Simulation time: 01 hr 49 min 10 sec)
Heartbeat CPU 7 instructions: 150000001 cycles: 37505215 heartbeat IPC: 4 cumulative IPC: 4 (Simulation time: 01 hr 49 min 10 sec)
Heartbeat CPU 4 instructions: 150000001 cycles: 37505240 heartbeat IPC: 4 cumulative IPC: 4 (Simulation time: 01 hr 49 min 10 sec)
Heartbeat CPU 3 instructions: 150000001 cycles: 37505262 heartbeat IPC: 4 cumulative IPC: 4 (Simulation time: 01 hr 49 min 10 sec)
*** Reached end of trace: (0, "traces/canneal_big0.champsimtrace")
*** Reached end of trace: (5, "traces/canneal_big0.champsimtrace")
*** Reached end of trace: (2, "traces/canneal_big2.champsimtrace")
*** Reached end of trace: (7, "traces/canneal_big2.champsimtrace")
*** Reached end of trace: (4, "traces/canneal_big4.champsimtrace")
*** Reached end of trace: (3, "traces/canneal_big3.champsimtrace")
*** Reached end of trace: (2, "traces/canneal_big2.champsimtrace")
*** Reached end of trace: (7, "traces/canneal_big2.champsimtrace")
*** Reached end of trace: (4, "traces/canneal_big4.champsimtrace")
*** Reached end of trace: (3, "traces/canneal_big3.champsimtrace")
Heartbeat CPU 2 instructions: 160000001 cycles: 40005209 heartbeat IPC: 4 cumulative IPC: 4 (Simulation time: 01 hr 55 min 27 sec)
Heartbeat CPU 7 instructions: 160000001 cycles: 40005215 heartbeat IPC: 4 cumulative IPC: 4 (Simulation time: 01 hr 55 min 27 sec)
Heartbeat CPU 4 instructions: 160000001 cycles: 40005240 heartbeat IPC: 4 cumulative IPC: 4 (Simulation time: 01 hr 55 min 27 sec)
Heartbeat CPU 3 instructions: 160000001 cycles: 40005262 heartbeat IPC: 4 cumulative IPC: 4 (Simulation time: 01 hr 55 min 27 sec)
*** Reached end of trace: (0, "traces/canneal_big0.champsimtrace")
Heartbeat CPU 0 instructions: 100000027 cycles: 40557835 heartbeat IPC: 2.106 cumulative IPC: 2.1 (Simulation time: 01 hr 56 min 51 sec)
*** Reached end of trace: (5, "traces/canneal_big0.champsimtrace")
Heartbeat CPU 5 instructions: 100000027 cycles: 40930649 heartbeat IPC: 2.023 cumulative IPC: 2.036 (Simulation time: 01 hr 57 min 50 sec)
*** Reached end of trace: (2, "traces/canneal_big2.champsimtrace")
*** Reached end of trace: (7, "traces/canneal_big2.champsimtrace")
*** Reached end of trace: (4, "traces/canneal_big4.champsimtrace")
*** Reached end of trace: (3, "traces/canneal_big3.champsimtrace")
*** Reached end of trace: (2, "traces/canneal_big2.champsimtrace")
*** Reached end of trace: (7, "traces/canneal_big2.champsimtrace")
*** Reached end of trace: (4, "traces/canneal_big4.champsimtrace")
*** Reached end of trace: (3, "traces/canneal_big3.champsimtrace")
Heartbeat CPU 2 instructions: 170000001 cycles: 42505209 heartbeat IPC: 4 cumulative IPC: 4 (Simulation time: 02 hr 01 min 54 sec)
Heartbeat CPU 7 instructions: 170000001 cycles: 42505215 heartbeat IPC: 4 cumulative IPC: 4 (Simulation time: 02 hr 01 min 54 sec)
Heartbeat CPU 4 instructions: 170000001 cycles: 42505240 heartbeat IPC: 4 cumulative IPC: 4 (Simulation time: 02 hr 01 min 54 sec)
Heartbeat CPU 3 instructions: 170000001 cycles: 42505262 heartbeat IPC: 4 cumulative IPC: 4 (Simulation time: 02 hr 01 min 54 sec)
*** Reached end of trace: (0, "traces/canneal_big0.champsimtrace")
*** Reached end of trace: (5, "traces/canneal_big0.champsimtrace")
*** Reached end of trace: (2, "traces/canneal_big2.champsimtrace")
*** Reached end of trace: (7, "traces/canneal_big2.champsimtrace")
*** Reached end of trace: (4, "traces/canneal_big4.champsimtrace")
*** Reached end of trace: (3, "traces/canneal_big3.champsimtrace")
*** Reached end of trace: (2, "traces/canneal_big2.champsimtrace")
*** Reached end of trace: (7, "traces/canneal_big2.champsimtrace")
*** Reached end of trace: (4, "traces/canneal_big4.champsimtrace")
*** Reached end of trace: (3, "traces/canneal_big3.champsimtrace")
Heartbeat CPU 2 instructions: 180000001 cycles: 45005209 heartbeat IPC: 4 cumulative IPC: 4 (Simulation time: 02 hr 09 min 15 sec)
Heartbeat CPU 7 instructions: 180000001 cycles: 45005215 heartbeat IPC: 4 cumulative IPC: 4 (Simulation time: 02 hr 09 min 15 sec)
Heartbeat CPU 4 instructions: 180000001 cycles: 45005240 heartbeat IPC: 4 cumulative IPC: 4 (Simulation time: 02 hr 09 min 15 sec)
Heartbeat CPU 3 instructions: 180000001 cycles: 45005262 heartbeat IPC: 4 cumulative IPC: 4 (Simulation time: 02 hr 09 min 15 sec)
*** Reached end of trace: (0, "traces/canneal_big0.champsimtrace")
Heartbeat CPU 0 instructions: 110000030 cycles: 45303836 heartbeat IPC: 2.107 cumulative IPC: 2.102 (Simulation time: 02 hr 10 min 11 sec)
*** Reached end of trace: (5, "traces/canneal_big0.champsimtrace")
Heartbeat CPU 5 instructions: 110000030 cycles: 45871212 heartbeat IPC: 2.024 cumulative IPC: 2.032 (Simulation time: 02 hr 12 min 00 sec)
*** Reached end of trace: (2, "traces/canneal_big2.champsimtrace")
*** Reached end of trace: (7, "traces/canneal_big2.champsimtrace")
*** Reached end of trace: (4, "traces/canneal_big4.champsimtrace")
*** Reached end of trace: (3, "traces/canneal_big3.champsimtrace")
*** Reached end of trace: (2, "traces/canneal_big2.champsimtrace")
*** Reached end of trace: (7, "traces/canneal_big2.champsimtrace")
*** Reached end of trace: (4, "traces/canneal_big4.champsimtrace")
*** Reached end of trace: (3, "traces/canneal_big3.champsimtrace")
Heartbeat CPU 2 instructions: 190000001 cycles: 47505209 heartbeat IPC: 4 cumulative IPC: 4 (Simulation time: 02 hr 16 min 51 sec)
Heartbeat CPU 7 instructions: 190000001 cycles: 47505215 heartbeat IPC: 4 cumulative IPC: 4 (Simulation time: 02 hr 16 min 51 sec)
Heartbeat CPU 4 instructions: 190000001 cycles: 47505240 heartbeat IPC: 4 cumulative IPC: 4 (Simulation time: 02 hr 16 min 51 sec)
Heartbeat CPU 3 instructions: 190000001 cycles: 47505262 heartbeat IPC: 4 cumulative IPC: 4 (Simulation time: 02 hr 16 min 51 sec)
*** Reached end of trace: (0, "traces/canneal_big0.champsimtrace")
*** Reached end of trace: (5, "traces/canneal_big0.champsimtrace")
*** Reached end of trace: (2, "traces/canneal_big2.champsimtrace")
*** Reached end of trace: (7, "traces/canneal_big2.champsimtrace")
*** Reached end of trace: (4, "traces/canneal_big4.champsimtrace")
*** Reached end of trace: (3, "traces/canneal_big3.champsimtrace")
*** Reached end of trace: (1, "traces/canneal_big1.champsimtrace")
*** Reached end of trace: (2, "traces/canneal_big2.champsimtrace")
*** Reached end of trace: (7, "traces/canneal_big2.champsimtrace")
*** Reached end of trace: (4, "traces/canneal_big4.champsimtrace")
*** Reached end of trace: (3, "traces/canneal_big3.champsimtrace")
Heartbeat CPU 2 instructions: 200000001 cycles: 50005209 heartbeat IPC: 4 cumulative IPC: 4 (Simulation time: 02 hr 24 min 42 sec)
Heartbeat CPU 7 instructions: 200000001 cycles: 50005215 heartbeat IPC: 4 cumulative IPC: 4 (Simulation time: 02 hr 24 min 42 sec)
Heartbeat CPU 4 instructions: 200000001 cycles: 50005240 heartbeat IPC: 4 cumulative IPC: 4 (Simulation time: 02 hr 24 min 42 sec)
Heartbeat CPU 3 instructions: 200000001 cycles: 50005262 heartbeat IPC: 4 cumulative IPC: 4 (Simulation time: 02 hr 24 min 42 sec)
*** Reached end of trace: (0, "traces/canneal_big0.champsimtrace")
Heartbeat CPU 0 instructions: 120000033 cycles: 50073707 heartbeat IPC: 2.096 cumulative IPC: 2.101 (Simulation time: 02 hr 24 min 57 sec)
*** Reached end of trace: (5, "traces/canneal_big0.champsimtrace")
Heartbeat CPU 5 instructions: 120000033 cycles: 50825101 heartbeat IPC: 2.019 cumulative IPC: 2.029 (Simulation time: 02 hr 27 min 35 sec)
*** Reached end of trace: (2, "traces/canneal_big2.champsimtrace")
*** Reached end of trace: (7, "traces/canneal_big2.champsimtrace")
*** Reached end of trace: (4, "traces/canneal_big4.champsimtrace")
*** Reached end of trace: (3, "traces/canneal_big3.champsimtrace")
*** Reached end of trace: (6, "traces/canneal_big1.champsimtrace")
*** Reached end of trace: (0, "traces/canneal_big0.champsimtrace")
*** Reached end of trace: (2, "traces/canneal_big2.champsimtrace")
*** Reached end of trace: (7, "traces/canneal_big2.champsimtrace")
*** Reached end of trace: (4, "traces/canneal_big4.champsimtrace")
*** Reached end of trace: (3, "traces/canneal_big3.champsimtrace")
Heartbeat CPU 2 instructions: 210000001 cycles: 52505209 heartbeat IPC: 4 cumulative IPC: 4 (Simulation time: 02 hr 33 min 12 sec)
Heartbeat CPU 7 instructions: 210000001 cycles: 52505215 heartbeat IPC: 4 cumulative IPC: 4 (Simulation time: 02 hr 33 min 12 sec)
Heartbeat CPU 4 instructions: 210000001 cycles: 52505240 heartbeat IPC: 4 cumulative IPC: 4 (Simulation time: 02 hr 33 min 12 sec)
Heartbeat CPU 3 instructions: 210000001 cycles: 52505262 heartbeat IPC: 4 cumulative IPC: 4 (Simulation time: 02 hr 33 min 12 sec)
*** Reached end of trace: (5, "traces/canneal_big0.champsimtrace")
*** Reached end of trace: (2, "traces/canneal_big2.champsimtrace")
*** Reached end of trace: (7, "traces/canneal_big2.champsimtrace")
*** Reached end of trace: (4, "traces/canneal_big4.champsimtrace")
*** Reached end of trace: (3, "traces/canneal_big3.champsimtrace")
*** Reached end of trace: (0, "traces/canneal_big0.champsimtrace")
Heartbeat CPU 0 instructions: 130000034 cycles: 54870519 heartbeat IPC: 2.085 cumulative IPC: 2.098 (Simulation time: 02 hr 39 min 27 sec)
*** Reached end of trace: (2, "traces/canneal_big2.champsimtrace")
*** Reached end of trace: (7, "traces/canneal_big2.champsimtrace")
*** Reached end of trace: (4, "traces/canneal_big4.champsimtrace")
*** Reached end of trace: (3, "traces/canneal_big3.champsimtrace")
Heartbeat CPU 2 instructions: 220000001 cycles: 55005209 heartbeat IPC: 4 cumulative IPC: 4 (Simulation time: 02 hr 39 min 51 sec)
Heartbeat CPU 7 instructions: 220000001 cycles: 55005215 heartbeat IPC: 4 cumulative IPC: 4 (Simulation time: 02 hr 39 min 51 sec)
Heartbeat CPU 4 instructions: 220000001 cycles: 55005240 heartbeat IPC: 4 cumulative IPC: 4 (Simulation time: 02 hr 39 min 51 sec)
Heartbeat CPU 3 instructions: 220000001 cycles: 55005262 heartbeat IPC: 4 cumulative IPC: 4 (Simulation time: 02 hr 39 min 51 sec)
*** Reached end of trace: (5, "traces/canneal_big0.champsimtrace")
Heartbeat CPU 5 instructions: 130000036 cycles: 55800124 heartbeat IPC: 2.01 cumulative IPC: 2.025 (Simulation time: 02 hr 42 min 02 sec)
Simulation finished CPU 7 instructions: 100000000 cycles: 25000000 cumulative IPC: 4 (Simulation time: 02 hr 42 min 07 sec)
Simulation finished CPU 4 instructions: 100000000 cycles: 25000000 cumulative IPC: 4 (Simulation time: 02 hr 42 min 07 sec)
Simulation finished CPU 3 instructions: 100000000 cycles: 25000000 cumulative IPC: 4 (Simulation time: 02 hr 42 min 07 sec)
Simulation finished CPU 2 instructions: 100000000 cycles: 25000000 cumulative IPC: 4 (Simulation time: 02 hr 42 min 07 sec)
*** Reached end of trace: (2, "traces/canneal_big2.champsimtrace")
*** Reached end of trace: (7, "traces/canneal_big2.champsimtrace")
*** Reached end of trace: (4, "traces/canneal_big4.champsimtrace")
*** Reached end of trace: (3, "traces/canneal_big3.champsimtrace")
*** Reached end of trace: (0, "traces/canneal_big0.champsimtrace")
*** Reached end of trace: (2, "traces/canneal_big2.champsimtrace")
*** Reached end of trace: (7, "traces/canneal_big2.champsimtrace")
*** Reached end of trace: (4, "traces/canneal_big4.champsimtrace")
*** Reached end of trace: (3, "traces/canneal_big3.champsimtrace")
Heartbeat CPU 2 instructions: 230000001 cycles: 57505209 heartbeat IPC: 4 cumulative IPC: 4 (Simulation time: 02 hr 46 min 36 sec)
Heartbeat CPU 7 instructions: 230000001 cycles: 57505215 heartbeat IPC: 4 cumulative IPC: 4 (Simulation time: 02 hr 46 min 36 sec)
Heartbeat CPU 4 instructions: 230000001 cycles: 57505240 heartbeat IPC: 4 cumulative IPC: 4 (Simulation time: 02 hr 46 min 36 sec)
Heartbeat CPU 3 instructions: 230000001 cycles: 57505262 heartbeat IPC: 4 cumulative IPC: 4 (Simulation time: 02 hr 46 min 36 sec)
*** Reached end of trace: (5, "traces/canneal_big0.champsimtrace")
*** Reached end of trace: (2, "traces/canneal_big2.champsimtrace")
*** Reached end of trace: (7, "traces/canneal_big2.champsimtrace")
*** Reached end of trace: (4, "traces/canneal_big4.champsimtrace")
*** Reached end of trace: (3, "traces/canneal_big3.champsimtrace")
*** Reached end of trace: (0, "traces/canneal_big0.champsimtrace")
Heartbeat CPU 0 instructions: 140000037 cycles: 59681498 heartbeat IPC: 2.079 cumulative IPC: 2.094 (Simulation time: 02 hr 53 min 20 sec)
*** Reached end of trace: (2, "traces/canneal_big2.champsimtrace")
*** Reached end of trace: (7, "traces/canneal_big2.champsimtrace")
*** Reached end of trace: (4, "traces/canneal_big4.champsimtrace")
*** Reached end of trace: (3, "traces/canneal_big3.champsimtrace")
Heartbeat CPU 2 instructions: 240000001 cycles: 60005209 heartbeat IPC: 4 cumulative IPC: 4 (Simulation time: 02 hr 54 min 34 sec)
Heartbeat CPU 7 instructions: 240000001 cycles: 60005215 heartbeat IPC: 4 cumulative IPC: 4 (Simulation time: 02 hr 54 min 34 sec)
Heartbeat CPU 4 instructions: 240000001 cycles: 60005240 heartbeat IPC: 4 cumulative IPC: 4 (Simulation time: 02 hr 54 min 34 sec)
Heartbeat CPU 3 instructions: 240000001 cycles: 60005262 heartbeat IPC: 4 cumulative IPC: 4 (Simulation time: 02 hr 54 min 34 sec)
*** Reached end of trace: (5, "traces/canneal_big0.champsimtrace")
Heartbeat CPU 5 instructions: 140000039 cycles: 60749123 heartbeat IPC: 2.021 cumulative IPC: 2.024 (Simulation time: 02 hr 57 min 16 sec)
*** Reached end of trace: (2, "traces/canneal_big2.champsimtrace")
*** Reached end of trace: (7, "traces/canneal_big2.champsimtrace")
*** Reached end of trace: (4, "traces/canneal_big4.champsimtrace")
*** Reached end of trace: (3, "traces/canneal_big3.champsimtrace")
*** Reached end of trace: (0, "traces/canneal_big0.champsimtrace")
*** Reached end of trace: (2, "traces/canneal_big2.champsimtrace")
*** Reached end of trace: (7, "traces/canneal_big2.champsimtrace")
*** Reached end of trace: (4, "traces/canneal_big4.champsimtrace")
*** Reached end of trace: (3, "traces/canneal_big3.champsimtrace")
Heartbeat CPU 2 instructions: 250000001 cycles: 62505209 heartbeat IPC: 4 cumulative IPC: 4 (Simulation time: 03 hr 03 min 25 sec)
Heartbeat CPU 7 instructions: 250000001 cycles: 62505215 heartbeat IPC: 4 cumulative IPC: 4 (Simulation time: 03 hr 03 min 25 sec)
Heartbeat CPU 4 instructions: 250000001 cycles: 62505240 heartbeat IPC: 4 cumulative IPC: 4 (Simulation time: 03 hr 03 min 25 sec)
Heartbeat CPU 3 instructions: 250000001 cycles: 62505262 heartbeat IPC: 4 cumulative IPC: 4 (Simulation time: 03 hr 03 min 25 sec)
*** Reached end of trace: (5, "traces/canneal_big0.champsimtrace")
*** Reached end of trace: (2, "traces/canneal_big2.champsimtrace")
*** Reached end of trace: (7, "traces/canneal_big2.champsimtrace")
*** Reached end of trace: (4, "traces/canneal_big4.champsimtrace")
*** Reached end of trace: (3, "traces/canneal_big3.champsimtrace")
*** Reached end of trace: (0, "traces/canneal_big0.champsimtrace")
Heartbeat CPU 0 instructions: 150000040 cycles: 64483849 heartbeat IPC: 2.082 cumulative IPC: 2.093 (Simulation time: 03 hr 09 min 15 sec)
*** Reached end of trace: (2, "traces/canneal_big2.champsimtrace")
*** Reached end of trace: (7, "traces/canneal_big2.champsimtrace")
*** Reached end of trace: (4, "traces/canneal_big4.champsimtrace")
*** Reached end of trace: (3, "traces/canneal_big3.champsimtrace")
Heartbeat CPU 2 instructions: 260000001 cycles: 65005209 heartbeat IPC: 4 cumulative IPC: 4 (Simulation time: 03 hr 10 min 53 sec)
Heartbeat CPU 7 instructions: 260000001 cycles: 65005215 heartbeat IPC: 4 cumulative IPC: 4 (Simulation time: 03 hr 10 min 53 sec)
Heartbeat CPU 4 instructions: 260000001 cycles: 65005240 heartbeat IPC: 4 cumulative IPC: 4 (Simulation time: 03 hr 10 min 53 sec)
Heartbeat CPU 3 instructions: 260000001 cycles: 65005262 heartbeat IPC: 4 cumulative IPC: 4 (Simulation time: 03 hr 10 min 53 sec)
*** Reached end of trace: (5, "traces/canneal_big0.champsimtrace")
Heartbeat CPU 5 instructions: 150000042 cycles: 65658451 heartbeat IPC: 2.037 cumulative IPC: 2.026 (Simulation time: 03 hr 12 min 49 sec)
*** Reached end of trace: (2, "traces/canneal_big2.champsimtrace")
*** Reached end of trace: (7, "traces/canneal_big2.champsimtrace")
*** Reached end of trace: (4, "traces/canneal_big4.champsimtrace")
*** Reached end of trace: (3, "traces/canneal_big3.champsimtrace")
*** Reached end of trace: (0, "traces/canneal_big0.champsimtrace")
*** Reached end of trace: (2, "traces/canneal_big2.champsimtrace")
*** Reached end of trace: (7, "traces/canneal_big2.champsimtrace")
*** Reached end of trace: (4, "traces/canneal_big4.champsimtrace")
*** Reached end of trace: (3, "traces/canneal_big3.champsimtrace")
Heartbeat CPU 2 instructions: 270000001 cycles: 67505209 heartbeat IPC: 4 cumulative IPC: 4 (Simulation time: 03 hr 19 min 02 sec)
Heartbeat CPU 7 instructions: 270000001 cycles: 67505215 heartbeat IPC: 4 cumulative IPC: 4 (Simulation time: 03 hr 19 min 02 sec)
Heartbeat CPU 4 instructions: 270000001 cycles: 67505240 heartbeat IPC: 4 cumulative IPC: 4 (Simulation time: 03 hr 19 min 02 sec)
Heartbeat CPU 3 instructions: 270000001 cycles: 67505262 heartbeat IPC: 4 cumulative IPC: 4 (Simulation time: 03 hr 19 min 02 sec)
*** Reached end of trace: (5, "traces/canneal_big0.champsimtrace")
*** Reached end of trace: (2, "traces/canneal_big2.champsimtrace")
*** Reached end of trace: (7, "traces/canneal_big2.champsimtrace")
*** Reached end of trace: (4, "traces/canneal_big4.champsimtrace")
*** Reached end of trace: (3, "traces/canneal_big3.champsimtrace")
*** Reached end of trace: (0, "traces/canneal_big0.champsimtrace")
Heartbeat CPU 0 instructions: 160000040 cycles: 69270948 heartbeat IPC: 2.089 cumulative IPC: 2.092 (Simulation time: 03 hr 25 min 01 sec)
*** Reached end of trace: (2, "traces/canneal_big2.champsimtrace")
*** Reached end of trace: (7, "traces/canneal_big2.champsimtrace")
*** Reached end of trace: (4, "traces/canneal_big4.champsimtrace")
*** Reached end of trace: (3, "traces/canneal_big3.champsimtrace")
Heartbeat CPU 2 instructions: 280000001 cycles: 70005209 heartbeat IPC: 4 cumulative IPC: 4 (Simulation time: 03 hr 27 min 17 sec)
Heartbeat CPU 7 instructions: 280000001 cycles: 70005215 heartbeat IPC: 4 cumulative IPC: 4 (Simulation time: 03 hr 27 min 17 sec)
Heartbeat CPU 4 instructions: 280000001 cycles: 70005240 heartbeat IPC: 4 cumulative IPC: 4 (Simulation time: 03 hr 27 min 17 sec)
Heartbeat CPU 3 instructions: 280000001 cycles: 70005262 heartbeat IPC: 4 cumulative IPC: 4 (Simulation time: 03 hr 27 min 17 sec)
*** Reached end of trace: (1, "traces/canneal_big1.champsimtrace")
Heartbeat CPU 1 instructions: 60000010 cycles: 70510719 heartbeat IPC: 0.2507 cumulative IPC: 0.2442 (Simulation time: 03 hr 28 min 48 sec)
*** Reached end of trace: (5, "traces/canneal_big0.champsimtrace")
Heartbeat CPU 5 instructions: 160000045 cycles: 70571620 heartbeat IPC: 2.035 cumulative IPC: 2.027 (Simulation time: 03 hr 28 min 56 sec)
*** Reached end of trace: (2, "traces/canneal_big2.champsimtrace")
*** Reached end of trace: (7, "traces/canneal_big2.champsimtrace")
*** Reached end of trace: (4, "traces/canneal_big4.champsimtrace")
*** Reached end of trace: (3, "traces/canneal_big3.champsimtrace")
*** Reached end of trace: (0, "traces/canneal_big0.champsimtrace")
*** Reached end of trace: (6, "traces/canneal_big1.champsimtrace")
Heartbeat CPU 6 instructions: 60000010 cycles: 72304103 heartbeat IPC: 0.2411 cumulative IPC: 0.2411 (Simulation time: 03 hr 34 min 20 sec)
*** Reached end of trace: (2, "traces/canneal_big2.champsimtrace")
*** Reached end of trace: (7, "traces/canneal_big2.champsimtrace")
*** Reached end of trace: (4, "traces/canneal_big4.champsimtrace")
*** Reached end of trace: (3, "traces/canneal_big3.champsimtrace")
Heartbeat CPU 2 instructions: 290000001 cycles: 72505209 heartbeat IPC: 4 cumulative IPC: 4 (Simulation time: 03 hr 35 min 00 sec)
Heartbeat CPU 7 instructions: 290000001 cycles: 72505215 heartbeat IPC: 4 cumulative IPC: 4 (Simulation time: 03 hr 35 min 00 sec)
Heartbeat CPU 4 instructions: 290000001 cycles: 72505240 heartbeat IPC: 4 cumulative IPC: 4 (Simulation time: 03 hr 35 min 00 sec)
Heartbeat CPU 3 instructions: 290000001 cycles: 72505262 heartbeat IPC: 4 cumulative IPC: 4 (Simulation time: 03 hr 35 min 00 sec)
*** Reached end of trace: (5, "traces/canneal_big0.champsimtrace")
*** Reached end of trace: (2, "traces/canneal_big2.champsimtrace")
*** Reached end of trace: (7, "traces/canneal_big2.champsimtrace")
*** Reached end of trace: (4, "traces/canneal_big4.champsimtrace")
*** Reached end of trace: (3, "traces/canneal_big3.champsimtrace")
*** Reached end of trace: (0, "traces/canneal_big0.champsimtrace")
Heartbeat CPU 0 instructions: 170000043 cycles: 74083051 heartbeat IPC: 2.078 cumulative IPC: 2.091 (Simulation time: 03 hr 40 min 31 sec)
*** Reached end of trace: (2, "traces/canneal_big2.champsimtrace")
*** Reached end of trace: (7, "traces/canneal_big2.champsimtrace")
*** Reached end of trace: (4, "traces/canneal_big4.champsimtrace")
*** Reached end of trace: (3, "traces/canneal_big3.champsimtrace")
Heartbeat CPU 2 instructions: 300000001 cycles: 75005209 heartbeat IPC: 4 cumulative IPC: 4 (Simulation time: 03 hr 43 min 32 sec)
Heartbeat CPU 7 instructions: 300000001 cycles: 75005215 heartbeat IPC: 4 cumulative IPC: 4 (Simulation time: 03 hr 43 min 32 sec)
Heartbeat CPU 4 instructions: 300000001 cycles: 75005240 heartbeat IPC: 4 cumulative IPC: 4 (Simulation time: 03 hr 43 min 32 sec)
Heartbeat CPU 3 instructions: 300000001 cycles: 75005262 heartbeat IPC: 4 cumulative IPC: 4 (Simulation time: 03 hr 43 min 32 sec)
*** Reached end of trace: (5, "traces/canneal_big0.champsimtrace")
Heartbeat CPU 5 instructions: 170000046 cycles: 75491149 heartbeat IPC: 2.033 cumulative IPC: 2.028 (Simulation time: 03 hr 44 min 56 sec)
*** Reached end of trace: (2, "traces/canneal_big2.champsimtrace")
*** Reached end of trace: (7, "traces/canneal_big2.champsimtrace")
*** Reached end of trace: (4, "traces/canneal_big4.champsimtrace")
*** Reached end of trace: (3, "traces/canneal_big3.champsimtrace")
*** Reached end of trace: (0, "traces/canneal_big0.champsimtrace")
*** Reached end of trace: (2, "traces/canneal_big2.champsimtrace")
*** Reached end of trace: (7, "traces/canneal_big2.champsimtrace")
*** Reached end of trace: (4, "traces/canneal_big4.champsimtrace")
*** Reached end of trace: (3, "traces/canneal_big3.champsimtrace")
Heartbeat CPU 2 instructions: 310000001 cycles: 77505209 heartbeat IPC: 4 cumulative IPC: 4 (Simulation time: 03 hr 50 min 48 sec)
Heartbeat CPU 7 instructions: 310000001 cycles: 77505215 heartbeat IPC: 4 cumulative IPC: 4 (Simulation time: 03 hr 50 min 48 sec)
Heartbeat CPU 4 instructions: 310000001 cycles: 77505240 heartbeat IPC: 4 cumulative IPC: 4 (Simulation time: 03 hr 50 min 48 sec)
Heartbeat CPU 3 instructions: 310000001 cycles: 77505262 heartbeat IPC: 4 cumulative IPC: 4 (Simulation time: 03 hr 50 min 48 sec)
*** Reached end of trace: (5, "traces/canneal_big0.champsimtrace")
Simulation finished CPU 0 instructions: 100000000 cycles: 47902749 cumulative IPC: 2.088 (Simulation time: 03 hr 54 min 23 sec)
*** Reached end of trace: (2, "traces/canneal_big2.champsimtrace")
*** Reached end of trace: (7, "traces/canneal_big2.champsimtrace")
*** Reached end of trace: (4, "traces/canneal_big4.champsimtrace")
*** Reached end of trace: (3, "traces/canneal_big3.champsimtrace")
*** Reached end of trace: (0, "traces/canneal_big0.champsimtrace")
Heartbeat CPU 0 instructions: 180000044 cycles: 78906938 heartbeat IPC: 2.073 cumulative IPC: 2.089 (Simulation time: 03 hr 54 min 52 sec)
*** Reached end of trace: (2, "traces/canneal_big2.champsimtrace")
*** Reached end of trace: (7, "traces/canneal_big2.champsimtrace")
*** Reached end of trace: (4, "traces/canneal_big4.champsimtrace")
*** Reached end of trace: (3, "traces/canneal_big3.champsimtrace")
Heartbeat CPU 2 instructions: 320000001 cycles: 80005209 heartbeat IPC: 4 cumulative IPC: 4 (Simulation time: 03 hr 57 min 40 sec)
Heartbeat CPU 7 instructions: 320000001 cycles: 80005215 heartbeat IPC: 4 cumulative IPC: 4 (Simulation time: 03 hr 57 min 40 sec)
Heartbeat CPU 4 instructions: 320000001 cycles: 80005240 heartbeat IPC: 4 cumulative IPC: 4 (Simulation time: 03 hr 57 min 40 sec)
Heartbeat CPU 3 instructions: 320000001 cycles: 80005262 heartbeat IPC: 4 cumulative IPC: 4 (Simulation time: 03 hr 57 min 40 sec)
Simulation finished CPU 5 instructions: 100000000 cycles: 49363101 cumulative IPC: 2.026 (Simulation time: 03 hr 58 min 09 sec)
*** Reached end of trace: (5, "traces/canneal_big0.champsimtrace")
Heartbeat CPU 5 instructions: 180000046 cycles: 80417016 heartbeat IPC: 2.03 cumulative IPC: 2.028 (Simulation time: 03 hr 58 min 44 sec)
*** Reached end of trace: (2, "traces/canneal_big2.champsimtrace")
*** Reached end of trace: (7, "traces/canneal_big2.champsimtrace")
*** Reached end of trace: (4, "traces/canneal_big4.champsimtrace")
*** Reached end of trace: (3, "traces/canneal_big3.champsimtrace")
*** Reached end of trace: (0, "traces/canneal_big0.champsimtrace")
*** Reached end of trace: (2, "traces/canneal_big2.champsimtrace")
*** Reached end of trace: (7, "traces/canneal_big2.champsimtrace")
*** Reached end of trace: (4, "traces/canneal_big4.champsimtrace")
*** Reached end of trace: (3, "traces/canneal_big3.champsimtrace")
Heartbeat CPU 2 instructions: 330000001 cycles: 82505209 heartbeat IPC: 4 cumulative IPC: 4 (Simulation time: 04 hr 03 min 59 sec)
Heartbeat CPU 7 instructions: 330000001 cycles: 82505215 heartbeat IPC: 4 cumulative IPC: 4 (Simulation time: 04 hr 03 min 59 sec)
Heartbeat CPU 4 instructions: 330000001 cycles: 82505240 heartbeat IPC: 4 cumulative IPC: 4 (Simulation time: 04 hr 03 min 59 sec)
Heartbeat CPU 3 instructions: 330000001 cycles: 82505262 heartbeat IPC: 4 cumulative IPC: 4 (Simulation time: 04 hr 03 min 59 sec)
*** Reached end of trace: (5, "traces/canneal_big0.champsimtrace")
*** Reached end of trace: (0, "traces/canneal_big0.champsimtrace")
Heartbeat CPU 0 instructions: 190000044 cycles: 83729897 heartbeat IPC: 2.073 cumulative IPC: 2.087 (Simulation time: 04 hr 07 min 27 sec)
*** Reached end of trace: (2, "traces/canneal_big2.champsimtrace")
*** Reached end of trace: (7, "traces/canneal_big2.champsimtrace")
*** Reached end of trace: (4, "traces/canneal_big4.champsimtrace")
*** Reached end of trace: (3, "traces/canneal_big3.champsimtrace")
*** Reached end of trace: (2, "traces/canneal_big2.champsimtrace")
*** Reached end of trace: (7, "traces/canneal_big2.champsimtrace")
*** Reached end of trace: (4, "traces/canneal_big4.champsimtrace")
*** Reached end of trace: (3, "traces/canneal_big3.champsimtrace")
Heartbeat CPU 2 instructions: 340000001 cycles: 85005209 heartbeat IPC: 4 cumulative IPC: 4 (Simulation time: 04 hr 10 min 59 sec)
Heartbeat CPU 7 instructions: 340000001 cycles: 85005215 heartbeat IPC: 4 cumulative IPC: 4 (Simulation time: 04 hr 10 min 59 sec)
Heartbeat CPU 4 instructions: 340000001 cycles: 85005240 heartbeat IPC: 4 cumulative IPC: 4 (Simulation time: 04 hr 10 min 59 sec)
Heartbeat CPU 3 instructions: 340000001 cycles: 85005262 heartbeat IPC: 4 cumulative IPC: 4 (Simulation time: 04 hr 10 min 59 sec)
*** Reached end of trace: (5, "traces/canneal_big0.champsimtrace")
Heartbeat CPU 5 instructions: 190000049 cycles: 85318102 heartbeat IPC: 2.04 cumulative IPC: 2.029 (Simulation time: 04 hr 11 min 51 sec)
*** Reached end of trace: (0, "traces/canneal_big0.champsimtrace")
*** Reached end of trace: (2, "traces/canneal_big2.champsimtrace")
*** Reached end of trace: (7, "traces/canneal_big2.champsimtrace")
*** Reached end of trace: (4, "traces/canneal_big4.champsimtrace")
*** Reached end of trace: (3, "traces/canneal_big3.champsimtrace")
*** Reached end of trace: (2, "traces/canneal_big2.champsimtrace")
*** Reached end of trace: (7, "traces/canneal_big2.champsimtrace")
*** Reached end of trace: (4, "traces/canneal_big4.champsimtrace")
*** Reached end of trace: (3, "traces/canneal_big3.champsimtrace")
Heartbeat CPU 2 instructions: 350000001 cycles: 87505209 heartbeat IPC: 4 cumulative IPC: 4 (Simulation time: 04 hr 17 min 38 sec)
Heartbeat CPU 7 instructions: 350000001 cycles: 87505215 heartbeat IPC: 4 cumulative IPC: 4 (Simulation time: 04 hr 17 min 38 sec)
Heartbeat CPU 4 instructions: 350000001 cycles: 87505240 heartbeat IPC: 4 cumulative IPC: 4 (Simulation time: 04 hr 17 min 38 sec)
Heartbeat CPU 3 instructions: 350000001 cycles: 87505262 heartbeat IPC: 4 cumulative IPC: 4 (Simulation time: 04 hr 17 min 38 sec)
*** Reached end of trace: (5, "traces/canneal_big0.champsimtrace")
*** Reached end of trace: (0, "traces/canneal_big0.champsimtrace")
Heartbeat CPU 0 instructions: 200000045 cycles: 88561662 heartbeat IPC: 2.07 cumulative IPC: 2.086 (Simulation time: 04 hr 20 min 24 sec)
*** Reached end of trace: (2, "traces/canneal_big2.champsimtrace")
*** Reached end of trace: (7, "traces/canneal_big2.champsimtrace")
*** Reached end of trace: (4, "traces/canneal_big4.champsimtrace")
*** Reached end of trace: (3, "traces/canneal_big3.champsimtrace")
*** Reached end of trace: (2, "traces/canneal_big2.champsimtrace")
*** Reached end of trace: (7, "traces/canneal_big2.champsimtrace")
*** Reached end of trace: (4, "traces/canneal_big4.champsimtrace")
*** Reached end of trace: (3, "traces/canneal_big3.champsimtrace")
Heartbeat CPU 2 instructions: 360000001 cycles: 90005209 heartbeat IPC: 4 cumulative IPC: 4 (Simulation time: 04 hr 23 min 50 sec)
Heartbeat CPU 7 instructions: 360000001 cycles: 90005215 heartbeat IPC: 4 cumulative IPC: 4 (Simulation time: 04 hr 23 min 50 sec)
Heartbeat CPU 4 instructions: 360000001 cycles: 90005240 heartbeat IPC: 4 cumulative IPC: 4 (Simulation time: 04 hr 23 min 50 sec)
Heartbeat CPU 3 instructions: 360000001 cycles: 90005262 heartbeat IPC: 4 cumulative IPC: 4 (Simulation time: 04 hr 23 min 50 sec)
*** Reached end of trace: (5, "traces/canneal_big0.champsimtrace")
Heartbeat CPU 5 instructions: 200000052 cycles: 90212330 heartbeat IPC: 2.043 cumulative IPC: 2.03 (Simulation time: 04 hr 24 min 21 sec)
*** Reached end of trace: (0, "traces/canneal_big0.champsimtrace")
*** Reached end of trace: (1, "traces/canneal_big1.champsimtrace")
*** Reached end of trace: (2, "traces/canneal_big2.champsimtrace")
*** Reached end of trace: (7, "traces/canneal_big2.champsimtrace")
*** Reached end of trace: (4, "traces/canneal_big4.champsimtrace")
*** Reached end of trace: (3, "traces/canneal_big3.champsimtrace")
*** Reached end of trace: (2, "traces/canneal_big2.champsimtrace")
*** Reached end of trace: (7, "traces/canneal_big2.champsimtrace")
*** Reached end of trace: (4, "traces/canneal_big4.champsimtrace")
*** Reached end of trace: (3, "traces/canneal_big3.champsimtrace")
Heartbeat CPU 2 instructions: 370000001 cycles: 92505209 heartbeat IPC: 4 cumulative IPC: 4 (Simulation time: 04 hr 30 min 50 sec)
Heartbeat CPU 7 instructions: 370000001 cycles: 92505215 heartbeat IPC: 4 cumulative IPC: 4 (Simulation time: 04 hr 30 min 50 sec)
Heartbeat CPU 4 instructions: 370000001 cycles: 92505240 heartbeat IPC: 4 cumulative IPC: 4 (Simulation time: 04 hr 30 min 50 sec)
Heartbeat CPU 3 instructions: 370000001 cycles: 92505262 heartbeat IPC: 4 cumulative IPC: 4 (Simulation time: 04 hr 30 min 50 sec)
*** Reached end of trace: (5, "traces/canneal_big0.champsimtrace")
*** Reached end of trace: (6, "traces/canneal_big1.champsimtrace")
*** Reached end of trace: (0, "traces/canneal_big0.champsimtrace")
Heartbeat CPU 0 instructions: 210000048 cycles: 93414930 heartbeat IPC: 2.06 cumulative IPC: 2.084 (Simulation time: 04 hr 33 min 18 sec)
*** Reached end of trace: (2, "traces/canneal_big2.champsimtrace")
*** Reached end of trace: (7, "traces/canneal_big2.champsimtrace")
*** Reached end of trace: (4, "traces/canneal_big4.champsimtrace")
*** Reached end of trace: (3, "traces/canneal_big3.champsimtrace")
*** Reached end of trace: (2, "traces/canneal_big2.champsimtrace")
*** Reached end of trace: (7, "traces/canneal_big2.champsimtrace")
*** Reached end of trace: (4, "traces/canneal_big4.champsimtrace")
*** Reached end of trace: (3, "traces/canneal_big3.champsimtrace")
Heartbeat CPU 2 instructions: 380000001 cycles: 95005209 heartbeat IPC: 4 cumulative IPC: 4 (Simulation time: 04 hr 37 min 25 sec)
Heartbeat CPU 7 instructions: 380000001 cycles: 95005215 heartbeat IPC: 4 cumulative IPC: 4 (Simulation time: 04 hr 37 min 25 sec)
Heartbeat CPU 4 instructions: 380000001 cycles: 95005240 heartbeat IPC: 4 cumulative IPC: 4 (Simulation time: 04 hr 37 min 25 sec)
Heartbeat CPU 3 instructions: 380000001 cycles: 95005262 heartbeat IPC: 4 cumulative IPC: 4 (Simulation time: 04 hr 37 min 25 sec)
*** Reached end of trace: (5, "traces/canneal_big0.champsimtrace")
Heartbeat CPU 5 instructions: 210000053 cycles: 95120965 heartbeat IPC: 2.037 cumulative IPC: 2.031 (Simulation time: 04 hr 37 min 42 sec)
*** Reached end of trace: (0, "traces/canneal_big0.champsimtrace")
*** Reached end of trace: (2, "traces/canneal_big2.champsimtrace")
*** Reached end of trace: (7, "traces/canneal_big2.champsimtrace")
*** Reached end of trace: (4, "traces/canneal_big4.champsimtrace")
*** Reached end of trace: (3, "traces/canneal_big3.champsimtrace")
*** Reached end of trace: (2, "traces/canneal_big2.champsimtrace")
*** Reached end of trace: (7, "traces/canneal_big2.champsimtrace")
*** Reached end of trace: (4, "traces/canneal_big4.champsimtrace")
*** Reached end of trace: (3, "traces/canneal_big3.champsimtrace")
Heartbeat CPU 2 instructions: 390000001 cycles: 97505209 heartbeat IPC: 4 cumulative IPC: 4 (Simulation time: 04 hr 44 min 19 sec)
Heartbeat CPU 7 instructions: 390000001 cycles: 97505215 heartbeat IPC: 4 cumulative IPC: 4 (Simulation time: 04 hr 44 min 19 sec)
Heartbeat CPU 4 instructions: 390000001 cycles: 97505240 heartbeat IPC: 4 cumulative IPC: 4 (Simulation time: 04 hr 44 min 19 sec)
Heartbeat CPU 3 instructions: 390000001 cycles: 97505262 heartbeat IPC: 4 cumulative IPC: 4 (Simulation time: 04 hr 44 min 19 sec)
*** Reached end of trace: (5, "traces/canneal_big0.champsimtrace")
*** Reached end of trace: (0, "traces/canneal_big0.champsimtrace")
Heartbeat CPU 0 instructions: 220000051 cycles: 98291134 heartbeat IPC: 2.051 cumulative IPC: 2.082 (Simulation time: 04 hr 47 min 08 sec)
*** Reached end of trace: (2, "traces/canneal_big2.champsimtrace")
*** Reached end of trace: (7, "traces/canneal_big2.champsimtrace")
*** Reached end of trace: (4, "traces/canneal_big4.champsimtrace")
*** Reached end of trace: (3, "traces/canneal_big3.champsimtrace")
*** Reached end of trace: (2, "traces/canneal_big2.champsimtrace")
*** Reached end of trace: (7, "traces/canneal_big2.champsimtrace")
*** Reached end of trace: (4, "traces/canneal_big4.champsimtrace")
*** Reached end of trace: (3, "traces/canneal_big3.champsimtrace")
Heartbeat CPU 2 instructions: 400000001 cycles: 100005209 heartbeat IPC: 4 cumulative IPC: 4 (Simulation time: 04 hr 52 min 50 sec)
Heartbeat CPU 7 instructions: 400000001 cycles: 100005215 heartbeat IPC: 4 cumulative IPC: 4 (Simulation time: 04 hr 52 min 50 sec)
Heartbeat CPU 4 instructions: 400000001 cycles: 100005240 heartbeat IPC: 4 cumulative IPC: 4 (Simulation time: 04 hr 52 min 50 sec)
Heartbeat CPU 3 instructions: 400000001 cycles: 100005262 heartbeat IPC: 4 cumulative IPC: 4 (Simulation time: 04 hr 52 min 50 sec)
*** Reached end of trace: (5, "traces/canneal_big0.champsimtrace")
Heartbeat CPU 5 instructions: 220000053 cycles: 100016589 heartbeat IPC: 2.043 cumulative IPC: 2.032 (Simulation time: 04 hr 52 min 52 sec)
*** Reached end of trace: (0, "traces/canneal_big0.champsimtrace")
*** Reached end of trace: (2, "traces/canneal_big2.champsimtrace")
*** Reached end of trace: (7, "traces/canneal_big2.champsimtrace")
*** Reached end of trace: (4, "traces/canneal_big4.champsimtrace")
*** Reached end of trace: (3, "traces/canneal_big3.champsimtrace")
*** Reached end of trace: (5, "traces/canneal_big0.champsimtrace")
*** Reached end of trace: (2, "traces/canneal_big2.champsimtrace")
*** Reached end of trace: (7, "traces/canneal_big2.champsimtrace")
*** Reached end of trace: (4, "traces/canneal_big4.champsimtrace")
*** Reached end of trace: (3, "traces/canneal_big3.champsimtrace")
Heartbeat CPU 2 instructions: 410000001 cycles: 102505209 heartbeat IPC: 4 cumulative IPC: 4 (Simulation time: 04 hr 59 min 55 sec)
Heartbeat CPU 7 instructions: 410000001 cycles: 102505215 heartbeat IPC: 4 cumulative IPC: 4 (Simulation time: 04 hr 59 min 55 sec)
Heartbeat CPU 4 instructions: 410000001 cycles: 102505240 heartbeat IPC: 4 cumulative IPC: 4 (Simulation time: 04 hr 59 min 55 sec)
Heartbeat CPU 3 instructions: 410000001 cycles: 102505262 heartbeat IPC: 4 cumulative IPC: 4 (Simulation time: 04 hr 59 min 55 sec)
*** Reached end of trace: (0, "traces/canneal_big0.champsimtrace")
Heartbeat CPU 0 instructions: 230000051 cycles: 103154053 heartbeat IPC: 2.056 cumulative IPC: 2.08 (Simulation time: 05 hr 01 min 44 sec)
*** Reached end of trace: (2, "traces/canneal_big2.champsimtrace")
*** Reached end of trace: (7, "traces/canneal_big2.champsimtrace")
*** Reached end of trace: (4, "traces/canneal_big4.champsimtrace")
*** Reached end of trace: (3, "traces/canneal_big3.champsimtrace")
*** Reached end of trace: (5, "traces/canneal_big0.champsimtrace")
Heartbeat CPU 5 instructions: 230000056 cycles: 104887695 heartbeat IPC: 2.053 cumulative IPC: 2.033 (Simulation time: 05 hr 06 min 41 sec)
*** Reached end of trace: (2, "traces/canneal_big2.champsimtrace")
*** Reached end of trace: (7, "traces/canneal_big2.champsimtrace")
*** Reached end of trace: (4, "traces/canneal_big4.champsimtrace")
*** Reached end of trace: (3, "traces/canneal_big3.champsimtrace")
Heartbeat CPU 2 instructions: 420000001 cycles: 105005209 heartbeat IPC: 4 cumulative IPC: 4 (Simulation time: 05 hr 07 min 00 sec)
Heartbeat CPU 7 instructions: 420000001 cycles: 105005215 heartbeat IPC: 4 cumulative IPC: 4 (Simulation time: 05 hr 07 min 00 sec)
Heartbeat CPU 4 instructions: 420000001 cycles: 105005240 heartbeat IPC: 4 cumulative IPC: 4 (Simulation time: 05 hr 07 min 00 sec)
Heartbeat CPU 3 instructions: 420000001 cycles: 105005262 heartbeat IPC: 4 cumulative IPC: 4 (Simulation time: 05 hr 07 min 00 sec)
*** Reached end of trace: (0, "traces/canneal_big0.champsimtrace")
*** Reached end of trace: (2, "traces/canneal_big2.champsimtrace")
*** Reached end of trace: (7, "traces/canneal_big2.champsimtrace")
*** Reached end of trace: (4, "traces/canneal_big4.champsimtrace")
*** Reached end of trace: (3, "traces/canneal_big3.champsimtrace")
*** Reached end of trace: (5, "traces/canneal_big0.champsimtrace")
*** Reached end of trace: (2, "traces/canneal_big2.champsimtrace")
*** Reached end of trace: (7, "traces/canneal_big2.champsimtrace")
*** Reached end of trace: (4, "traces/canneal_big4.champsimtrace")
*** Reached end of trace: (3, "traces/canneal_big3.champsimtrace")
Heartbeat CPU 2 instructions: 430000001 cycles: 107505209 heartbeat IPC: 4 cumulative IPC: 4 (Simulation time: 05 hr 14 min 43 sec)
Heartbeat CPU 7 instructions: 430000001 cycles: 107505215 heartbeat IPC: 4 cumulative IPC: 4 (Simulation time: 05 hr 14 min 43 sec)
Heartbeat CPU 4 instructions: 430000001 cycles: 107505240 heartbeat IPC: 4 cumulative IPC: 4 (Simulation time: 05 hr 14 min 43 sec)
Heartbeat CPU 3 instructions: 430000001 cycles: 107505262 heartbeat IPC: 4 cumulative IPC: 4 (Simulation time: 05 hr 14 min 43 sec)
*** Reached end of trace: (0, "traces/canneal_big0.champsimtrace")
Heartbeat CPU 0 instructions: 240000054 cycles: 107996069 heartbeat IPC: 2.065 cumulative IPC: 2.079 (Simulation time: 05 hr 16 min 11 sec)
*** Reached end of trace: (2, "traces/canneal_big2.champsimtrace")
*** Reached end of trace: (7, "traces/canneal_big2.champsimtrace")
*** Reached end of trace: (4, "traces/canneal_big4.champsimtrace")
*** Reached end of trace: (3, "traces/canneal_big3.champsimtrace")
*** Reached end of trace: (5, "traces/canneal_big0.champsimtrace")
Heartbeat CPU 5 instructions: 240000059 cycles: 109766203 heartbeat IPC: 2.05 cumulative IPC: 2.034 (Simulation time: 05 hr 21 min 12 sec)
*** Reached end of trace: (2, "traces/canneal_big2.champsimtrace")
*** Reached end of trace: (7, "traces/canneal_big2.champsimtrace")
*** Reached end of trace: (4, "traces/canneal_big4.champsimtrace")
*** Reached end of trace: (3, "traces/canneal_big3.champsimtrace")
Heartbeat CPU 2 instructions: 440000001 cycles: 110005209 heartbeat IPC: 4 cumulative IPC: 4 (Simulation time: 05 hr 21 min 49 sec)
Heartbeat CPU 7 instructions: 440000001 cycles: 110005215 heartbeat IPC: 4 cumulative IPC: 4 (Simulation time: 05 hr 21 min 49 sec)
Heartbeat CPU 4 instructions: 440000001 cycles: 110005240 heartbeat IPC: 4 cumulative IPC: 4 (Simulation time: 05 hr 21 min 49 sec)
Heartbeat CPU 3 instructions: 440000001 cycles: 110005262 heartbeat IPC: 4 cumulative IPC: 4 (Simulation time: 05 hr 21 min 49 sec)
*** Reached end of trace: (0, "traces/canneal_big0.champsimtrace")
*** Reached end of trace: (2, "traces/canneal_big2.champsimtrace")
*** Reached end of trace: (7, "traces/canneal_big2.champsimtrace")
*** Reached end of trace: (4, "traces/canneal_big4.champsimtrace")
*** Reached end of trace: (3, "traces/canneal_big3.champsimtrace")
*** Reached end of trace: (1, "traces/canneal_big1.champsimtrace")
Heartbeat CPU 1 instructions: 70000012 cycles: 111819057 heartbeat IPC: 0.2421 cumulative IPC: 0.2431 (Simulation time: 05 hr 26 min 37 sec)
*** Reached end of trace: (5, "traces/canneal_big0.champsimtrace")
*** Reached end of trace: (2, "traces/canneal_big2.champsimtrace")
*** Reached end of trace: (7, "traces/canneal_big2.champsimtrace")
*** Reached end of trace: (4, "traces/canneal_big4.champsimtrace")
*** Reached end of trace: (3, "traces/canneal_big3.champsimtrace")
Heartbeat CPU 2 instructions: 450000001 cycles: 112505209 heartbeat IPC: 4 cumulative IPC: 4 (Simulation time: 05 hr 28 min 41 sec)
Heartbeat CPU 7 instructions: 450000001 cycles: 112505215 heartbeat IPC: 4 cumulative IPC: 4 (Simulation time: 05 hr 28 min 41 sec)
Heartbeat CPU 4 instructions: 450000001 cycles: 112505240 heartbeat IPC: 4 cumulative IPC: 4 (Simulation time: 05 hr 28 min 41 sec)
Heartbeat CPU 3 instructions: 450000001 cycles: 112505262 heartbeat IPC: 4 cumulative IPC: 4 (Simulation time: 05 hr 28 min 41 sec)
*** Reached end of trace: (0, "traces/canneal_big0.champsimtrace")
Heartbeat CPU 0 instructions: 250000057 cycles: 112861817 heartbeat IPC: 2.055 cumulative IPC: 2.078 (Simulation time: 05 hr 29 min 48 sec)
*** Reached end of trace: (2, "traces/canneal_big2.champsimtrace")
*** Reached end of trace: (7, "traces/canneal_big2.champsimtrace")
*** Reached end of trace: (4, "traces/canneal_big4.champsimtrace")
*** Reached end of trace: (3, "traces/canneal_big3.champsimtrace")
*** Reached end of trace: (6, "traces/canneal_big1.champsimtrace")
Heartbeat CPU 6 instructions: 70000012 cycles: 113847019 heartbeat IPC: 0.2407 cumulative IPC: 0.2409 (Simulation time: 05 hr 32 min 38 sec)
*** Reached end of trace: (5, "traces/canneal_big0.champsimtrace")
Heartbeat CPU 5 instructions: 250000060 cycles: 114651920 heartbeat IPC: 2.047 cumulative IPC: 2.035 (Simulation time: 05 hr 35 min 10 sec)
*** Reached end of trace: (2, "traces/canneal_big2.champsimtrace")
*** Reached end of trace: (7, "traces/canneal_big2.champsimtrace")
*** Reached end of trace: (4, "traces/canneal_big4.champsimtrace")
*** Reached end of trace: (3, "traces/canneal_big3.champsimtrace")
Heartbeat CPU 2 instructions: 460000001 cycles: 115005209 heartbeat IPC: 4 cumulative IPC: 4 (Simulation time: 05 hr 36 min 15 sec)
Heartbeat CPU 7 instructions: 460000001 cycles: 115005215 heartbeat IPC: 4 cumulative IPC: 4 (Simulation time: 05 hr 36 min 15 sec)
Heartbeat CPU 4 instructions: 460000001 cycles: 115005240 heartbeat IPC: 4 cumulative IPC: 4 (Simulation time: 05 hr 36 min 15 sec)
Heartbeat CPU 3 instructions: 460000001 cycles: 115005262 heartbeat IPC: 4 cumulative IPC: 4 (Simulation time: 05 hr 36 min 15 sec)
*** Reached end of trace: (0, "traces/canneal_big0.champsimtrace")
*** Reached end of trace: (2, "traces/canneal_big2.champsimtrace")
*** Reached end of trace: (7, "traces/canneal_big2.champsimtrace")
*** Reached end of trace: (4, "traces/canneal_big4.champsimtrace")
*** Reached end of trace: (3, "traces/canneal_big3.champsimtrace")
*** Reached end of trace: (5, "traces/canneal_big0.champsimtrace")
*** Reached end of trace: (2, "traces/canneal_big2.champsimtrace")
*** Reached end of trace: (7, "traces/canneal_big2.champsimtrace")
*** Reached end of trace: (4, "traces/canneal_big4.champsimtrace")
*** Reached end of trace: (3, "traces/canneal_big3.champsimtrace")
Heartbeat CPU 2 instructions: 470000001 cycles: 117505209 heartbeat IPC: 4 cumulative IPC: 4 (Simulation time: 05 hr 44 min 34 sec)
Heartbeat CPU 7 instructions: 470000001 cycles: 117505215 heartbeat IPC: 4 cumulative IPC: 4 (Simulation time: 05 hr 44 min 34 sec)
Heartbeat CPU 4 instructions: 470000001 cycles: 117505240 heartbeat IPC: 4 cumulative IPC: 4 (Simulation time: 05 hr 44 min 34 sec)
Heartbeat CPU 3 instructions: 470000001 cycles: 117505262 heartbeat IPC: 4 cumulative IPC: 4 (Simulation time: 05 hr 44 min 34 sec)
*** Reached end of trace: (0, "traces/canneal_big0.champsimtrace")
Heartbeat CPU 0 instructions: 260000058 cycles: 117728547 heartbeat IPC: 2.055 cumulative IPC: 2.076 (Simulation time: 05 hr 45 min 14 sec)
*** Reached end of trace: (2, "traces/canneal_big2.champsimtrace")
*** Reached end of trace: (7, "traces/canneal_big2.champsimtrace")
*** Reached end of trace: (4, "traces/canneal_big4.champsimtrace")
*** Reached end of trace: (3, "traces/canneal_big3.champsimtrace")
*** Reached end of trace: (5, "traces/canneal_big0.champsimtrace")
Heartbeat CPU 5 instructions: 260000060 cycles: 119539167 heartbeat IPC: 2.046 cumulative IPC: 2.035 (Simulation time: 05 hr 50 min 54 sec)
*** Reached end of trace: (2, "traces/canneal_big2.champsimtrace")
*** Reached end of trace: (7, "traces/canneal_big2.champsimtrace")
*** Reached end of trace: (4, "traces/canneal_big4.champsimtrace")
*** Reached end of trace: (3, "traces/canneal_big3.champsimtrace")
Heartbeat CPU 2 instructions: 480000001 cycles: 120005209 heartbeat IPC: 4 cumulative IPC: 4 (Simulation time: 05 hr 52 min 29 sec)
Heartbeat CPU 7 instructions: 480000001 cycles: 120005215 heartbeat IPC: 4 cumulative IPC: 4 (Simulation time: 05 hr 52 min 29 sec)
Heartbeat CPU 4 instructions: 480000001 cycles: 120005240 heartbeat IPC: 4 cumulative IPC: 4 (Simulation time: 05 hr 52 min 29 sec)
Heartbeat CPU 3 instructions: 480000001 cycles: 120005262 heartbeat IPC: 4 cumulative IPC: 4 (Simulation time: 05 hr 52 min 29 sec)
*** Reached end of trace: (0, "traces/canneal_big0.champsimtrace")
*** Reached end of trace: (2, "traces/canneal_big2.champsimtrace")
*** Reached end of trace: (7, "traces/canneal_big2.champsimtrace")
*** Reached end of trace: (4, "traces/canneal_big4.champsimtrace")
*** Reached end of trace: (3, "traces/canneal_big3.champsimtrace")
*** Reached end of trace: (5, "traces/canneal_big0.champsimtrace")
*** Reached end of trace: (2, "traces/canneal_big2.champsimtrace")
*** Reached end of trace: (7, "traces/canneal_big2.champsimtrace")
*** Reached end of trace: (4, "traces/canneal_big4.champsimtrace")
*** Reached end of trace: (3, "traces/canneal_big3.champsimtrace")
Heartbeat CPU 2 instructions: 490000001 cycles: 122505209 heartbeat IPC: 4 cumulative IPC: 4 (Simulation time: 06 hr 00 min 26 sec)
Heartbeat CPU 7 instructions: 490000001 cycles: 122505215 heartbeat IPC: 4 cumulative IPC: 4 (Simulation time: 06 hr 00 min 26 sec)
Heartbeat CPU 4 instructions: 490000001 cycles: 122505240 heartbeat IPC: 4 cumulative IPC: 4 (Simulation time: 06 hr 00 min 26 sec)
Heartbeat CPU 3 instructions: 490000001 cycles: 122505262 heartbeat IPC: 4 cumulative IPC: 4 (Simulation time: 06 hr 00 min 26 sec)
*** Reached end of trace: (0, "traces/canneal_big0.champsimtrace")
Heartbeat CPU 0 instructions: 270000058 cycles: 122587923 heartbeat IPC: 2.058 cumulative IPC: 2.075 (Simulation time: 06 hr 00 min 42 sec)
*** Reached end of trace: (2, "traces/canneal_big2.champsimtrace")
*** Reached end of trace: (7, "traces/canneal_big2.champsimtrace")
*** Reached end of trace: (4, "traces/canneal_big4.champsimtrace")
*** Reached end of trace: (3, "traces/canneal_big3.champsimtrace")
*** Reached end of trace: (5, "traces/canneal_big0.champsimtrace")
Heartbeat CPU 5 instructions: 270000063 cycles: 124414140 heartbeat IPC: 2.051 cumulative IPC: 2.036 (Simulation time: 06 hr 05 min 45 sec)
*** Reached end of trace: (2, "traces/canneal_big2.champsimtrace")
*** Reached end of trace: (7, "traces/canneal_big2.champsimtrace")
*** Reached end of trace: (4, "traces/canneal_big4.champsimtrace")
*** Reached end of trace: (3, "traces/canneal_big3.champsimtrace")
Heartbeat CPU 2 instructions: 500000001 cycles: 125005209 heartbeat IPC: 4 cumulative IPC: 4 (Simulation time: 06 hr 07 min 34 sec)
Heartbeat CPU 7 instructions: 500000001 cycles: 125005215 heartbeat IPC: 4 cumulative IPC: 4 (Simulation time: 06 hr 07 min 34 sec)
Heartbeat CPU 4 instructions: 500000001 cycles: 125005240 heartbeat IPC: 4 cumulative IPC: 4 (Simulation time: 06 hr 07 min 34 sec)
Heartbeat CPU 3 instructions: 500000001 cycles: 125005262 heartbeat IPC: 4 cumulative IPC: 4 (Simulation time: 06 hr 07 min 34 sec)
*** Reached end of trace: (0, "traces/canneal_big0.champsimtrace")
*** Reached end of trace: (2, "traces/canneal_big2.champsimtrace")
*** Reached end of trace: (7, "traces/canneal_big2.champsimtrace")
*** Reached end of trace: (4, "traces/canneal_big4.champsimtrace")
*** Reached end of trace: (3, "traces/canneal_big3.champsimtrace")
*** Reached end of trace: (5, "traces/canneal_big0.champsimtrace")
*** Reached end of trace: (0, "traces/canneal_big0.champsimtrace")
Heartbeat CPU 0 instructions: 280000061 cycles: 127443519 heartbeat IPC: 2.059 cumulative IPC: 2.075 (Simulation time: 06 hr 15 min 04 sec)
*** Reached end of trace: (2, "traces/canneal_big2.champsimtrace")
*** Reached end of trace: (7, "traces/canneal_big2.champsimtrace")
*** Reached end of trace: (4, "traces/canneal_big4.champsimtrace")
*** Reached end of trace: (3, "traces/canneal_big3.champsimtrace")
Heartbeat CPU 2 instructions: 510000001 cycles: 127505209 heartbeat IPC: 4 cumulative IPC: 4 (Simulation time: 06 hr 15 min 18 sec)
Heartbeat CPU 7 instructions: 510000001 cycles: 127505215 heartbeat IPC: 4 cumulative IPC: 4 (Simulation time: 06 hr 15 min 18 sec)
Heartbeat CPU 4 instructions: 510000001 cycles: 127505240 heartbeat IPC: 4 cumulative IPC: 4 (Simulation time: 06 hr 15 min 18 sec)
Heartbeat CPU 3 instructions: 510000001 cycles: 127505262 heartbeat IPC: 4 cumulative IPC: 4 (Simulation time: 06 hr 15 min 18 sec)
*** Reached end of trace: (2, "traces/canneal_big2.champsimtrace")
*** Reached end of trace: (7, "traces/canneal_big2.champsimtrace")
*** Reached end of trace: (4, "traces/canneal_big4.champsimtrace")
*** Reached end of trace: (3, "traces/canneal_big3.champsimtrace")
*** Reached end of trace: (5, "traces/canneal_big0.champsimtrace")
Heartbeat CPU 5 instructions: 280000066 cycles: 129284781 heartbeat IPC: 2.053 cumulative IPC: 2.037 (Simulation time: 06 hr 21 min 00 sec)
*** Reached end of trace: (0, "traces/canneal_big0.champsimtrace")
*** Reached end of trace: (2, "traces/canneal_big2.champsimtrace")
*** Reached end of trace: (7, "traces/canneal_big2.champsimtrace")
*** Reached end of trace: (4, "traces/canneal_big4.champsimtrace")
*** Reached end of trace: (3, "traces/canneal_big3.champsimtrace")
Heartbeat CPU 2 instructions: 520000001 cycles: 130005209 heartbeat IPC: 4 cumulative IPC: 4 (Simulation time: 06 hr 23 min 32 sec)
Heartbeat CPU 7 instructions: 520000001 cycles: 130005215 heartbeat IPC: 4 cumulative IPC: 4 (Simulation time: 06 hr 23 min 32 sec)
Heartbeat CPU 4 instructions: 520000001 cycles: 130005240 heartbeat IPC: 4 cumulative IPC: 4 (Simulation time: 06 hr 23 min 32 sec)
Heartbeat CPU 3 instructions: 520000001 cycles: 130005262 heartbeat IPC: 4 cumulative IPC: 4 (Simulation time: 06 hr 23 min 32 sec)
*** Reached end of trace: (2, "traces/canneal_big2.champsimtrace")
*** Reached end of trace: (7, "traces/canneal_big2.champsimtrace")
*** Reached end of trace: (4, "traces/canneal_big4.champsimtrace")
*** Reached end of trace: (3, "traces/canneal_big3.champsimtrace")
*** Reached end of trace: (5, "traces/canneal_big0.champsimtrace")
*** Reached end of trace: (0, "traces/canneal_big0.champsimtrace")
Heartbeat CPU 0 instructions: 290000062 cycles: 132302674 heartbeat IPC: 2.058 cumulative IPC: 2.074 (Simulation time: 06 hr 31 min 25 sec)
*** Reached end of trace: (1, "traces/canneal_big1.champsimtrace")
*** Reached end of trace: (2, "traces/canneal_big2.champsimtrace")
*** Reached end of trace: (7, "traces/canneal_big2.champsimtrace")
*** Reached end of trace: (4, "traces/canneal_big4.champsimtrace")
*** Reached end of trace: (3, "traces/canneal_big3.champsimtrace")
Heartbeat CPU 2 instructions: 530000001 cycles: 132505209 heartbeat IPC: 4 cumulative IPC: 4 (Simulation time: 06 hr 32 min 06 sec)
Heartbeat CPU 7 instructions: 530000001 cycles: 132505215 heartbeat IPC: 4 cumulative IPC: 4 (Simulation time: 06 hr 32 min 06 sec)
Heartbeat CPU 4 instructions: 530000001 cycles: 132505240 heartbeat IPC: 4 cumulative IPC: 4 (Simulation time: 06 hr 32 min 06 sec)
Heartbeat CPU 3 instructions: 530000001 cycles: 132505262 heartbeat IPC: 4 cumulative IPC: 4 (Simulation time: 06 hr 32 min 06 sec)
*** Reached end of trace: (2, "traces/canneal_big2.champsimtrace")
*** Reached end of trace: (7, "traces/canneal_big2.champsimtrace")
*** Reached end of trace: (4, "traces/canneal_big4.champsimtrace")
*** Reached end of trace: (3, "traces/canneal_big3.champsimtrace")
*** Reached end of trace: (5, "traces/canneal_big0.champsimtrace")
Heartbeat CPU 5 instructions: 290000067 cycles: 134158498 heartbeat IPC: 2.052 cumulative IPC: 2.038 (Simulation time: 06 hr 36 min 32 sec)
*** Reached end of trace: (6, "traces/canneal_big1.champsimtrace")
*** Reached end of trace: (0, "traces/canneal_big0.champsimtrace")
*** Reached end of trace: (2, "traces/canneal_big2.champsimtrace")
*** Reached end of trace: (7, "traces/canneal_big2.champsimtrace")
*** Reached end of trace: (4, "traces/canneal_big4.champsimtrace")
*** Reached end of trace: (3, "traces/canneal_big3.champsimtrace")
Heartbeat CPU 2 instructions: 540000001 cycles: 135005209 heartbeat IPC: 4 cumulative IPC: 4 (Simulation time: 06 hr 38 min 40 sec)
[...]
cpu5->cpu5_L1D RFO          ACCESS:          0 HIT:          0 MISS:          0 MSHR_MERGE:          0
cpu5->cpu5_L1D PREFETCH     ACCESS:          0 HIT:          0 MISS:          0 MSHR_MERGE:          0
cpu5->cpu5_L1D WRITE        ACCESS:  153603481 HIT:  134074729 MISS:   19528752 MSHR_MERGE:   15265492
cpu5->cpu5_L1D TRANSLATION  ACCESS:          0 HIT:          0 MISS:          0 MSHR_MERGE:          0
cpu5->cpu5_L1D PREFETCH REQUESTED:          0 ISSUED:          0 USEFUL:          0 USELESS:          0
cpu5->cpu5_L1D AVERAGE MISS LATENCY: 150.3 cycles
cpu5_L1D COHERENCE INVALIDATIONS:          0
cpu5->cpu5_ITLB TOTAL        ACCESS:  109975050 HIT:  109929234 MISS:      45816 MSHR_MERGE:      16746
cpu5->cpu5_ITLB LOAD         ACCESS:  109975050 HIT:  109929234 MISS:      45816 MSHR_MERGE:      16746
cpu5->cpu5_ITLB RFO          ACCESS:          0 HIT:          0 MISS:          0 MSHR_MERGE:          0
cpu5->cpu5_ITLB PREFETCH     ACCESS:          0 HIT:          0 MISS:          0 MSHR_MERGE:          0
cpu5->cpu5_ITLB WRITE        ACCESS:          0 HIT:          0 MISS:          0 MSHR_MERGE:          0
cpu5->cpu5_ITLB TRANSLATION  ACCESS:          0 HIT:          0 MISS:          0 MSHR_MERGE:          0
cpu5->cpu5_ITLB PREFETCH REQUESTED:          0 ISSUED:          0 USEFUL:          0 USELESS:          0
cpu5->cpu5_ITLB AVERAGE MISS LATENCY: 3.994 cycles
cpu5_ITLB COHERENCE INVALIDATIONS:          0
cpu5->cpu5_DTLB TOTAL        ACCESS:  138620550 HIT:  138252510 MISS:     368040 MSHR_MERGE:      78066
cpu5->cpu5_DTLB LOAD         ACCESS:  138620550 HIT:  138252510 MISS:     368040 MSHR_MERGE:      78066
cpu5->cpu5_DTLB RFO          ACCESS:          0 HIT:          0 MISS:          0 MSHR_MERGE:          0
cpu5->cpu5_DTLB PREFETCH     ACCESS:          0 HIT:          0 MISS:          0 MSHR_MERGE:          0
cpu5->cpu5_DTLB WRITE        ACCESS:          0 HIT:          0 MISS:          0 MSHR_MERGE:          0
cpu5->cpu5_DTLB TRANSLATION  ACCESS:          0 HIT:          0 MISS:          0 MSHR_MERGE:          0
cpu5->cpu5_DTLB PREFETCH REQUESTED:          0 ISSUED:          0 USEFUL:          0 USELESS:          0
cpu5->cpu5_DTLB AVERAGE MISS LATENCY: 4.001 cycles
cpu5_DTLB COHERENCE INVALIDATIONS:          0
cpu4_STLB COHERENCE INVALIDATIONS:          0
cpu4_L2C COHERENCE INVALIDATIONS:          0
cpu4->cpu4_L1I TOTAL        ACCESS:  222836230 HIT:  222836230 MISS:          0 MSHR_MERGE:          0
cpu4->cpu4_L1I LOAD         ACCESS:  222836230 HIT:  222836230 MISS:          0 MSHR_MERGE:          0
cpu4->cpu4_L1I RFO          ACCESS:          0 HIT:          0 MISS:          0 MSHR_MERGE:          0
cpu4->cpu4_L1I PREFETCH     ACCESS:          0 HIT:          0 MISS:          0 MSHR_MERGE:          0
cpu4->cpu4_L1I WRITE        ACCESS:          0 HIT:          0 MISS:          0 MSHR_MERGE:          0
cpu4->cpu4_L1I TRANSLATION  ACCESS:          0 HIT:          0 MISS:          0 MSHR_MERGE:          0
cpu4->cpu4_L1I PREFETCH REQUESTED:          0 ISSUED:          0 USEFUL:          0 USELESS:          0
cpu4->cpu4_L1I AVERAGE MISS LATENCY: - cycles
cpu4_L1I COHERENCE INVALIDATIONS:          0
cpu4_L1D COHERENCE INVALIDATIONS:          0
cpu4->cpu4_ITLB TOTAL        ACCESS:  185319350 HIT:  185319350 MISS:          0 MSHR_MERGE:          0
cpu4->cpu4_ITLB LOAD         ACCESS:  185319350 HIT:  185319350 MISS:          0 MSHR_MERGE:          0
cpu4->cpu4_ITLB RFO          ACCESS:          0 HIT:          0 MISS:          0 MSHR_MERGE:          0
cpu4->cpu4_ITLB PREFETCH     ACCESS:          0 HIT:          0 MISS:          0 MSHR_MERGE:          0
cpu4->cpu4_ITLB WRITE        ACCESS:          0 HIT:          0 MISS:          0 MSHR_MERGE:          0
cpu4->cpu4_ITLB TRANSLATION  ACCESS:          0 HIT:          0 MISS:          0 MSHR_MERGE:          0
cpu4->cpu4_ITLB PREFETCH REQUESTED:          0 ISSUED:          0 USEFUL:          0 USELESS:          0
cpu4->cpu4_ITLB AVERAGE MISS LATENCY: - cycles
cpu4_ITLB COHERENCE INVALIDATIONS:          0
cpu4_DTLB COHERENCE INVALIDATIONS:          0
cpu3_STLB COHERENCE INVALIDATIONS:          0
cpu3_L2C COHERENCE INVALIDATIONS:          0
cpu3->cpu3_L1I TOTAL        ACCESS:  238409907 HIT:  238409907 MISS:          0 MSHR_MERGE:          0
cpu3->cpu3_L1I LOAD         ACCESS:  238409907 HIT:  238409907 MISS:          0 MSHR_MERGE:          0
cpu3->cpu3_L1I RFO          ACCESS:          0 HIT:          0 MISS:          0 MSHR_MERGE:          0
cpu3->cpu3_L1I PREFETCH     ACCESS:          0 HIT:          0 MISS:          0 MSHR_MERGE:          0
cpu3->cpu3_L1I WRITE        ACCESS:          0 HIT:          0 MISS:          0 MSHR_MERGE:          0
cpu3->cpu3_L1I TRANSLATION  ACCESS:          0 HIT:          0 MISS:          0 MSHR_MERGE:          0
cpu3->cpu3_L1I PREFETCH REQUESTED:          0 ISSUED:          0 USEFUL:          0 USELESS:          0
cpu3->cpu3_L1I AVERAGE MISS LATENCY: - cycles
cpu3_L1I COHERENCE INVALIDATIONS:          0
cpu3_L1D COHERENCE INVALIDATIONS:          0
cpu3->cpu3_ITLB TOTAL        ACCESS:  198984216 HIT:  198984216 MISS:          0 MSHR_MERGE:          0
cpu3->cpu3_ITLB LOAD         ACCESS:  198984216 HIT:  198984216 MISS:          0 MSHR_MERGE:          0
cpu3->cpu3_ITLB RFO          ACCESS:          0 HIT:          0 MISS:          0 MSHR_MERGE:          0
cpu3->cpu3_ITLB PREFETCH     ACCESS:          0 HIT:          0 MISS:          0 MSHR_MERGE:          0
cpu3->cpu3_ITLB WRITE        ACCESS:          0 HIT:          0 MISS:          0 MSHR_MERGE:          0
cpu3->cpu3_ITLB TRANSLATION  ACCESS:          0 HIT:          0 MISS:          0 MSHR_MERGE:          0
cpu3->cpu3_ITLB PREFETCH REQUESTED:          0 ISSUED:          0 USEFUL:          0 USELESS:          0
cpu3->cpu3_ITLB AVERAGE MISS LATENCY: - cycles
cpu3_ITLB COHERENCE INVALIDATIONS:          0
cpu3_DTLB COHERENCE INVALIDATIONS:          0
cpu2_STLB COHERENCE INVALIDATIONS:          0
cpu2_L2C COHERENCE INVALIDATIONS:          0
cpu2->cpu2_L1I TOTAL        ACCESS:  219497118 HIT:  219497118 MISS:          0 MSHR_MERGE:          0
cpu2->cpu2_L1I LOAD         ACCESS:  219497118 HIT:  219497118 MISS:          0 MSHR_MERGE:          0
cpu2->cpu2_L1I RFO          ACCESS:          0 HIT:          0 MISS:          0 MSHR_MERGE:          0
cpu2->cpu2_L1I PREFETCH     ACCESS:          0 HIT:          0 MISS:          0 MSHR_MERGE:          0
cpu2->cpu2_L1I WRITE        ACCESS:          0 HIT:          0 MISS:          0 MSHR_MERGE:          0
cpu2->cpu2_L1I TRANSLATION  ACCESS:          0 HIT:          0 MISS:          0 MSHR_MERGE:          0
cpu2->cpu2_L1I PREFETCH REQUESTED:          0 ISSUED:          0 USEFUL:          0 USELESS:          0
cpu2->cpu2_L1I AVERAGE MISS LATENCY: - cycles
cpu2_L1I COHERENCE INVALIDATIONS:          0
cpu2_L1D COHERENCE INVALIDATIONS:          0
cpu2->cpu2_ITLB TOTAL        ACCESS:  190866968 HIT:  190866968 MISS:          0 MSHR_MERGE:          0
cpu2->cpu2_ITLB LOAD         ACCESS:  190866968 HIT:  190866968 MISS:          0 MSHR_MERGE:          0
cpu2->cpu2_ITLB RFO          ACCESS:          0 HIT:          0 MISS:          0 MSHR_MERGE:          0
cpu2->cpu2_ITLB PREFETCH     ACCESS:          0 HIT:          0 MISS:          0 MSHR_MERGE:          0
cpu2->cpu2_ITLB WRITE        ACCESS:          0 HIT:          0 MISS:          0 MSHR_MERGE:          0
cpu2->cpu2_ITLB TRANSLATION  ACCESS:          0 HIT:          0 MISS:          0 MSHR_MERGE:          0
cpu2->cpu2_ITLB PREFETCH REQUESTED:          0 ISSUED:          0 USEFUL:          0 USELESS:          0
cpu2->cpu2_ITLB AVERAGE MISS LATENCY: - cycles
cpu2_ITLB COHERENCE INVALIDATIONS:          0
cpu2_DTLB COHERENCE INVALIDATIONS:          0
cpu1->cpu1_STLB TOTAL        ACCESS:    2232325 HIT:    2034985 MISS:     197340 MSHR_MERGE:          0
cpu1->cpu1_STLB LOAD         ACCESS:    2232325 HIT:    2034985 MISS:     197340 MSHR_MERGE:          0
cpu1->cpu1_STLB RFO          ACCESS:          0 HIT:          0 MISS:          0 MSHR_MERGE:          0
cpu1->cpu1_STLB PREFETCH     ACCESS:          0 HIT:          0 MISS:          0 MSHR_MERGE:          0
cpu1->cpu1_STLB WRITE        ACCESS:          0 HIT:          0 MISS:          0 MSHR_MERGE:          0
cpu1->cpu1_STLB TRANSLATION  ACCESS:          0 HIT:          0 MISS:          0 MSHR_MERGE:          0
cpu1->cpu1_STLB PREFETCH REQUESTED:          0 ISSUED:          0 USEFUL:          0 USELESS:          0
cpu1->cpu1_STLB AVERAGE MISS LATENCY: 624.8 cycles
cpu1_STLB COHERENCE INVALIDATIONS:          0
cpu1->cpu1_L2C TOTAL        ACCESS:    2365404 HIT:     411944 MISS:    1953460 MSHR_MERGE:          0
cpu1->cpu1_L2C LOAD         ACCESS:    1974367 HIT:     410816 MISS:    1563551 MSHR_MERGE:          0
cpu1->cpu1_L2C RFO          ACCESS:          0 HIT:          0 MISS:          0 MSHR_MERGE:          0
cpu1->cpu1_L2C PREFETCH     ACCESS:          0 HIT:          0 MISS:          0 MSHR_MERGE:          0
cpu1->cpu1_L2C WRITE        ACCESS:          0 HIT:          0 MISS:          0 MSHR_MERGE:          0
cpu1->cpu1_L2C TRANSLATION  ACCESS:     391037 HIT:       1128 MISS:     389909 MSHR_MERGE:          0
cpu1->cpu1_L2C PREFETCH REQUESTED:          0 ISSUED:          0 USEFUL:          0 USELESS:          0
cpu1->cpu1_L2C AVERAGE MISS LATENCY: 311.4 cycles
cpu1_L2C COHERENCE INVALIDATIONS:          0
cpu1->cpu1_L1I TOTAL        ACCESS:   34316645 HIT:   32140588 MISS:    2176057 MSHR_MERGE:     201690
cpu1->cpu1_L1I LOAD         ACCESS:   34316645 HIT:   32140588 MISS:    2176057 MSHR_MERGE:     201690
cpu1->cpu1_L1I RFO          ACCESS:          0 HIT:          0 MISS:          0 MSHR_MERGE:          0
cpu1->cpu1_L1I PREFETCH     ACCESS:          0 HIT:          0 MISS:          0 MSHR_MERGE:          0
cpu1->cpu1_L1I WRITE        ACCESS:          0 HIT:          0 MISS:          0 MSHR_MERGE:          0
cpu1->cpu1_L1I TRANSLATION  ACCESS:          0 HIT:          0 MISS:          0 MSHR_MERGE:          0
cpu1->cpu1_L1I PREFETCH REQUESTED:          0 ISSUED:          0 USEFUL:          0 USELESS:          0
cpu1->cpu1_L1I AVERAGE MISS LATENCY: 256.2 cycles
cpu1_L1I COHERENCE INVALIDATIONS:          0
cpu1->cpu1_L1D TOTAL        ACCESS:     394819 HIT:       3782 MISS:     391037 MSHR_MERGE:          0
cpu1->cpu1_L1D LOAD         ACCESS:          0 HIT:          0 MISS:          0 MSHR_MERGE:          0
cpu1->cpu1_L1D RFO          ACCESS:          0 HIT:          0 MISS:          0 MSHR_MERGE:          0
cpu1->cpu1_L1D PREFETCH     ACCESS:          0 HIT:          0 MISS:          0 MSHR_MERGE:          0
cpu1->cpu1_L1D WRITE        ACCESS:          0 HIT:          0 MISS:          0 MSHR_MERGE:          0
cpu1->cpu1_L1D TRANSLATION  ACCESS:     394819 HIT:       3782 MISS:     391037 MSHR_MERGE:          0
cpu1->cpu1_L1D PREFETCH REQUESTED:          0 ISSUED:          0 USEFUL:          0 USELESS:          0
cpu1->cpu1_L1D AVERAGE MISS LATENCY: 309.3 cycles
cpu1_L1D COHERENCE INVALIDATIONS:          0
cpu1->cpu1_ITLB TOTAL        ACCESS:   33776687 HIT:   31493010 MISS:    2283677 MSHR_MERGE:      51352
cpu1->cpu1_ITLB LOAD         ACCESS:   33776687 HIT:   31493010 MISS:    2283677 MSHR_MERGE:      51352
cpu1->cpu1_ITLB RFO          ACCESS:          0 HIT:          0 MISS:          0 MSHR_MERGE:          0
cpu1->cpu1_ITLB PREFETCH     ACCESS:          0 HIT:          0 MISS:          0 MSHR_MERGE:          0
cpu1->cpu1_ITLB WRITE        ACCESS:          0 HIT:          0 MISS:          0 MSHR_MERGE:          0
cpu1->cpu1_ITLB TRANSLATION  ACCESS:          0 HIT:          0 MISS:          0 MSHR_MERGE:          0
cpu1->cpu1_ITLB PREFETCH REQUESTED:          0 ISSUED:          0 USEFUL:          0 USELESS:          0
cpu1->cpu1_ITLB AVERAGE MISS LATENCY: 59.32 cycles
cpu1_ITLB COHERENCE INVALIDATIONS:          0
cpu1_DTLB COHERENCE INVALIDATIONS:          0
cpu0->cpu0_STLB TOTAL        ACCESS:     322257 HIT:     322257 MISS:          0 MSHR_MERGE:          0
cpu0->cpu0_STLB LOAD         ACCESS:     322257 HIT:     322257 MISS:          0 MSHR_MERGE:          0
cpu0->cpu0_STLB RFO          ACCESS:          0 HIT:          0 MISS:          0 MSHR_MERGE:          0
cpu0->cpu0_STLB PREFETCH     ACCESS:          0 HIT:          0 MISS:          0 MSHR_MERGE:          0
cpu0->cpu0_STLB WRITE        ACCESS:          0 HIT:          0 MISS:          0 MSHR_MERGE:          0
cpu0->cpu0_STLB TRANSLATION  ACCESS:          0 HIT:          0 MISS:          0 MSHR_MERGE:          0
cpu0->cpu0_STLB PREFETCH REQUESTED:          0 ISSUED:          0 USEFUL:          0 USELESS:          0
cpu0->cpu0_STLB AVERAGE MISS LATENCY: - cycles
cpu0_STLB COHERENCE INVALIDATIONS:          0
cpu0->cpu0_L2C TOTAL        ACCESS:   10265370 HIT:    4973396 MISS:    5291974 MSHR_MERGE:          0
cpu0->cpu0_L2C LOAD         ACCESS:    1626241 HIT:     545821 MISS:    1080420 MSHR_MERGE:          0
cpu0->cpu0_L2C RFO          ACCESS:    4286221 HIT:      74839 MISS:    4211382 MSHR_MERGE:          0
cpu0->cpu0_L2C PREFETCH     ACCESS:          0 HIT:          0 MISS:          0 MSHR_MERGE:          0
cpu0->cpu0_L2C WRITE        ACCESS:    4352908 HIT:    4352736 MISS:        172 MSHR_MERGE:          0
cpu0->cpu0_L2C TRANSLATION  ACCESS:          0 HIT:          0 MISS:          0 MSHR_MERGE:          0
cpu0->cpu0_L2C PREFETCH REQUESTED:          0 ISSUED:          0 USEFUL:          0 USELESS:          0
cpu0->cpu0_L2C AVERAGE MISS LATENCY: 169.7 cycles
cpu0_L2C COHERENCE INVALIDATIONS:          0
cpu0->cpu0_L1I TOTAL        ACCESS:  143991113 HIT:  143670211 MISS:     320902 MSHR_MERGE:      87633
cpu0->cpu0_L1I LOAD         ACCESS:  143991113 HIT:  143670211 MISS:     320902 MSHR_MERGE:      87633
cpu0->cpu0_L1I RFO          ACCESS:          0 HIT:          0 MISS:          0 MSHR_MERGE:          0
cpu0->cpu0_L1I PREFETCH     ACCESS:          0 HIT:          0 MISS:          0 MSHR_MERGE:          0
cpu0->cpu0_L1I WRITE        ACCESS:          0 HIT:          0 MISS:          0 MSHR_MERGE:          0
cpu0->cpu0_L1I TRANSLATION  ACCESS:          0 HIT:          0 MISS:          0 MSHR_MERGE:          0
cpu0->cpu0_L1I PREFETCH REQUESTED:          0 ISSUED:          0 USEFUL:          0 USELESS:          0
cpu0->cpu0_L1I AVERAGE MISS LATENCY: 355 cycles
cpu0_L1I COHERENCE INVALIDATIONS:          0
cpu0->cpu0_L1D TOTAL        ACCESS:  172549223 HIT:  149635858 MISS:   22913365 MSHR_MERGE:   17228585
cpu0->cpu0_L1D LOAD         ACCESS:   17739723 HIT:   14834172 MISS:    2905551 MSHR_MERGE:    1512579
cpu0->cpu0_L1D RFO          ACCESS:          0 HIT:          0 MISS:          0 MSHR_MERGE:          0
cpu0->cpu0_L1D PREFETCH     ACCESS:          0 HIT:          0 MISS:          0 MSHR_MERGE:          0
cpu0->cpu0_L1D WRITE        ACCESS:  154809500 HIT:  134801686 MISS:   20007814 MSHR_MERGE:   15716006
cpu0->cpu0_L1D TRANSLATION  ACCESS:          0 HIT:          0 MISS:          0 MSHR_MERGE:          0
cpu0->cpu0_L1D PREFETCH REQUESTED:          0 ISSUED:          0 USEFUL:          0 USELESS:          0
cpu0->cpu0_L1D AVERAGE MISS LATENCY: 151.7 cycles
cpu0_L1D COHERENCE INVALIDATIONS:          0
cpu0->cpu0_ITLB TOTAL        ACCESS:  119889896 HIT:  119841341 MISS:      48555 MSHR_MERGE:      19158
cpu0->cpu0_ITLB LOAD         ACCESS:  119889896 HIT:  119841341 MISS:      48555 MSHR_MERGE:      19158
cpu0->cpu0_ITLB RFO          ACCESS:          0 HIT:          0 MISS:          0 MSHR_MERGE:          0
cpu0->cpu0_ITLB PREFETCH     ACCESS:          0 HIT:          0 MISS:          0 MSHR_MERGE:          0
cpu0->cpu0_ITLB WRITE        ACCESS:          0 HIT:          0 MISS:          0 MSHR_MERGE:          0
cpu0->cpu0_ITLB TRANSLATION  ACCESS:          0 HIT:          0 MISS:          0 MSHR_MERGE:          0
cpu0->cpu0_ITLB PREFETCH REQUESTED:          0 ISSUED:          0 USEFUL:          0 USELESS:          0
cpu0->cpu0_ITLB AVERAGE MISS LATENCY: 4.005 cycles
cpu0_ITLB COHERENCE INVALIDATIONS:          0
cpu0->cpu0_DTLB TOTAL        ACCESS:  143761438 HIT:  143385381 MISS:     376057 MSHR_MERGE:      83197
cpu0->cpu0_DTLB LOAD         ACCESS:  143761438 HIT:  143385381 MISS:     376057 MSHR_MERGE:      83197
cpu0->cpu0_DTLB RFO          ACCESS:          0 HIT:          0 MISS:          0 MSHR_MERGE:          0
cpu0->cpu0_DTLB PREFETCH     ACCESS:          0 HIT:          0 MISS:          0 MSHR_MERGE:          0
cpu0->cpu0_DTLB WRITE        ACCESS:          0 HIT:          0 MISS:          0 MSHR_MERGE:          0
cpu0->cpu0_DTLB TRANSLATION  ACCESS:          0 HIT:          0 MISS:          0 MSHR_MERGE:          0
cpu0->cpu0_DTLB PREFETCH REQUESTED:          0 ISSUED:          0 USEFUL:          0 USELESS:          0
cpu0->cpu0_DTLB AVERAGE MISS LATENCY: 4 cycles
cpu0_DTLB COHERENCE INVALIDATIONS:          0
cpu0->LLC TOTAL        ACCESS:    9553919 HIT:    5247398 MISS:    4306521 MSHR_MERGE:          0
cpu0->LLC LOAD         ACCESS:    1080420 HIT:      11370 MISS:    1069050 MSHR_MERGE:          0
cpu0->LLC RFO          ACCESS:    4211382 HIT:    2609807 MISS:    1601575 MSHR_MERGE:          0
cpu0->LLC PREFETCH     ACCESS:          0 HIT:          0 MISS:          0 MSHR_MERGE:          0
cpu0->LLC WRITE        ACCESS:    4262117 HIT:    2626221 MISS:    1635896 MSHR_MERGE:          0
cpu0->LLC TRANSLATION  ACCESS:          0 HIT:          0 MISS:          0 MSHR_MERGE:          0
cpu0->LLC PREFETCH REQUESTED:          0 ISSUED:          0 USEFUL:          0 USELESS:          0
cpu0->LLC AVERAGE MISS LATENCY: 645.4 cycles
cpu1->LLC TOTAL        ACCESS:    1953460 HIT:          0 MISS:    1953460 MSHR_MERGE:          0
cpu1->LLC LOAD         ACCESS:    1563551 HIT:          0 MISS:    1563551 MSHR_MERGE:          0
cpu1->LLC RFO          ACCESS:          0 HIT:          0 MISS:          0 MSHR_MERGE:          0
cpu1->LLC PREFETCH     ACCESS:          0 HIT:          0 MISS:          0 MSHR_MERGE:          0
cpu1->LLC WRITE        ACCESS:          0 HIT:          0 MISS:          0 MSHR_MERGE:          0
cpu1->LLC TRANSLATION  ACCESS:     389909 HIT:          0 MISS:     389909 MSHR_MERGE:          0
cpu1->LLC PREFETCH REQUESTED:          0 ISSUED:          0 USEFUL:          0 USELESS:          0
cpu1->LLC AVERAGE MISS LATENCY: 1423 cycles
cpu5->LLC TOTAL        ACCESS:    9474148 HIT:    5237263 MISS:    4236885 MSHR_MERGE:          0
cpu5->LLC LOAD         ACCESS:    1064380 HIT:      18030 MISS:    1046350 MSHR_MERGE:          0
cpu5->LLC RFO          ACCESS:    4182527 HIT:    2600102 MISS:    1582425 MSHR_MERGE:          0
cpu5->LLC PREFETCH     ACCESS:          0 HIT:          0 MISS:          0 MSHR_MERGE:          0
cpu5->LLC WRITE        ACCESS:    4227241 HIT:    2619131 MISS:    1608110 MSHR_MERGE:          0
cpu5->LLC TRANSLATION  ACCESS:          0 HIT:          0 MISS:          0 MSHR_MERGE:          0
cpu5->LLC PREFETCH REQUESTED:          0 ISSUED:          0 USEFUL:          0 USELESS:          0
cpu5->LLC AVERAGE MISS LATENCY: 656 cycles
cpu6->LLC TOTAL        ACCESS:    1941901 HIT:          0 MISS:    1941901 MSHR_MERGE:          0
cpu6->LLC LOAD         ACCESS:    1554256 HIT:          0 MISS:    1554256 MSHR_MERGE:          0
cpu6->LLC RFO          ACCESS:          0 HIT:          0 MISS:          0 MSHR_MERGE:          0
cpu6->LLC PREFETCH     ACCESS:          0 HIT:          0 MISS:          0 MSHR_MERGE:          0
cpu6->LLC WRITE        ACCESS:          0 HIT:          0 MISS:          0 MSHR_MERGE:          0
cpu6->LLC TRANSLATION  ACCESS:     387645 HIT:          0 MISS:     387645 MSHR_MERGE:          0
cpu6->LLC PREFETCH REQUESTED:          0 ISSUED:          0 USEFUL:          0 USELESS:          0
cpu6->LLC AVERAGE MISS LATENCY: 1431 cycles
LLC COHERENCE INVALIDATIONS:          0

DRAM Statistics

Channel 0 RQ ROW_BUFFER_HIT:     218545
  ROW_BUFFER_MISS:    8976161
  AVG DBUS CONGESTED CYCLE: 6.674
Channel 0 WQ ROW_BUFFER_HIT:     371962
  ROW_BUFFER_MISS:    2874720
  FULL:        772
Channel 0 REFRESHES ISSUED:      34596
