[VMEM] WARNING: physical memory size is smaller than virtual memory size.

*** ChampSim Multicore Out-of-Order Simulator ***
Warmup Instructions: 50000000
Simulation Instructions: 100000000
Number of CPUs: 8
Page size: 4096

Off-chip DRAM Size: 16 GiB Channels: 1 Width: 64-bit Data Rate: 3205 MT/s
*** Reached end of trace: (2, "traces/canneal_big2.champsimtrace")
*** Reached end of trace: (7, "traces/canneal_big2.champsimtrace")
*** Reached end of trace: (4, "traces/canneal_big4.champsimtrace")
*** Reached end of trace: (3, "traces/canneal_big3.champsimtrace")
*** Reached end of trace: (5, "traces/canneal_big0.champsimtrace")
*** Reached end of trace: (0, "traces/canneal_big0.champsimtrace")
*** Reached end of trace: (2, "traces/canneal_big2.champsimtrace")
*** Reached end of trace: (7, "traces/canneal_big2.champsimtrace")
*** Reached end of trace: (4, "traces/canneal_big4.champsimtrace")
*** Reached end of trace: (3, "traces/canneal_big3.champsimtrace")
Heartbeat CPU 2 instructions: 10000001 cycles: 2505209 heartbeat IPC: 3.992 cumulative IPC: 3.992 (Simulation time: 00 hr 07 min 42 sec)
Heartbeat CPU 7 instructions: 10000001 cycles: 2505215 heartbeat IPC: 3.992 cumulative IPC: 3.992 (Simulation time: 00 hr 07 min 42 sec)
Heartbeat CPU 4 instructions: 10000001 cycles: 2505240 heartbeat IPC: 3.992 cumulative IPC: 3.992 (Simulation time: 00 hr 07 min 42 sec)
Heartbeat CPU 3 instructions: 10000001 cycles: 2505262 heartbeat IPC: 3.992 cumulative IPC: 3.992 (Simulation time: 00 hr 07 min 42 sec)
*** Reached end of trace: (2, "traces/canneal_big2.champsimtrace")
*** Reached end of trace: (7, "traces/canneal_big2.champsimtrace")
*** Reached end of trace: (4, "traces/canneal_big4.champsimtrace")
*** Reached end of trace: (3, "traces/canneal_big3.champsimtrace")
*** Reached end of trace: (0, "traces/canneal_big0.champsimtrace")
Heartbeat CPU 0 instructions: 10000003 cycles: 4084876 heartbeat IPC: 2.448 cumulative IPC: 2.448 (Simulation time: 00 hr 12 min 33 sec)
*** Reached end of trace: (5, "traces/canneal_big0.champsimtrace")
Heartbeat CPU 5 instructions: 10000003 cycles: 4085992 heartbeat IPC: 2.447 cumulative IPC: 2.447 (Simulation time: 00 hr 12 min 34 sec)
*** Reached end of trace: (2, "traces/canneal_big2.champsimtrace")
*** Reached end of trace: (7, "traces/canneal_big2.champsimtrace")
*** Reached end of trace: (4, "traces/canneal_big4.champsimtrace")
*** Reached end of trace: (3, "traces/canneal_big3.champsimtrace")
Heartbeat CPU 2 instructions: 20000001 cycles: 5005209 heartbeat IPC: 4 cumulative IPC: 3.996 (Simulation time: 00 hr 15 min 07 sec)
Heartbeat CPU 7 instructions: 20000001 cycles: 5005215 heartbeat IPC: 4 cumulative IPC: 3.996 (Simulation time: 00 hr 15 min 07 sec)
Heartbeat CPU 4 instructions: 20000001 cycles: 5005240 heartbeat IPC: 4 cumulative IPC: 3.996 (Simulation time: 00 hr 15 min 07 sec)
Heartbeat CPU 3 instructions: 20000001 cycles: 5005262 heartbeat IPC: 4 cumulative IPC: 3.996 (Simulation time: 00 hr 15 min 07 sec)
*** Reached end of trace: (1, "traces/canneal_big1.champsimtrace")
*** Reached end of trace: (6, "traces/canneal_big1.champsimtrace")
*** Reached end of trace: (0, "traces/canneal_big0.champsimtrace")
*** Reached end of trace: (5, "traces/canneal_big0.champsimtrace")
*** Reached end of trace: (2, "traces/canneal_big2.champsimtrace")
*** Reached end of trace: (7, "traces/canneal_big2.champsimtrace")
*** Reached end of trace: (4, "traces/canneal_big4.champsimtrace")
*** Reached end of trace: (3, "traces/canneal_big3.champsimtrace")
*** Reached end of trace: (2, "traces/canneal_big2.champsimtrace")
*** Reached end of trace: (7, "traces/canneal_big2.champsimtrace")
*** Reached end of trace: (4, "traces/canneal_big4.champsimtrace")
*** Reached end of trace: (3, "traces/canneal_big3.champsimtrace")
Heartbeat CPU 2 instructions: 30000001 cycles: 7505209 heartbeat IPC: 4 cumulative IPC: 3.997 (Simulation time: 00 hr 23 min 24 sec)
Heartbeat CPU 7 instructions: 30000001 cycles: 7505215 heartbeat IPC: 4 cumulative IPC: 3.997 (Simulation time: 00 hr 23 min 24 sec)
Heartbeat CPU 4 instructions: 30000001 cycles: 7505240 heartbeat IPC: 4 cumulative IPC: 3.997 (Simulation time: 00 hr 23 min 24 sec)
Heartbeat CPU 3 instructions: 30000001 cycles: 7505262 heartbeat IPC: 4 cumulative IPC: 3.997 (Simulation time: 00 hr 23 min 24 sec)
*** Reached end of trace: (1, "traces/canneal_big1.champsimtrace")
Heartbeat CPU 1 instructions: 10000002 cycles: 7857117 heartbeat IPC: 1.273 cumulative IPC: 1.273 (Simulation time: 00 hr 24 min 30 sec)
*** Reached end of trace: (6, "traces/canneal_big1.champsimtrace")
Heartbeat CPU 6 instructions: 10000002 cycles: 7898932 heartbeat IPC: 1.266 cumulative IPC: 1.266 (Simulation time: 00 hr 24 min 37 sec)
*** Reached end of trace: (0, "traces/canneal_big0.champsimtrace")
Heartbeat CPU 0 instructions: 20000006 cycles: 7931125 heartbeat IPC: 2.6 cumulative IPC: 2.522 (Simulation time: 00 hr 24 min 43 sec)
*** Reached end of trace: (5, "traces/canneal_big0.champsimtrace")
Heartbeat CPU 5 instructions: 20000006 cycles: 7940191 heartbeat IPC: 2.595 cumulative IPC: 2.519 (Simulation time: 00 hr 24 min 45 sec)
*** Reached end of trace: (2, "traces/canneal_big2.champsimtrace")
*** Reached end of trace: (7, "traces/canneal_big2.champsimtrace")
*** Reached end of trace: (4, "traces/canneal_big4.champsimtrace")
*** Reached end of trace: (3, "traces/canneal_big3.champsimtrace")
*** Reached end of trace: (0, "traces/canneal_big0.champsimtrace")
*** Reached end of trace: (5, "traces/canneal_big0.champsimtrace")
*** Reached end of trace: (2, "traces/canneal_big2.champsimtrace")
*** Reached end of trace: (7, "traces/canneal_big2.champsimtrace")
*** Reached end of trace: (4, "traces/canneal_big4.champsimtrace")
*** Reached end of trace: (3, "traces/canneal_big3.champsimtrace")
Heartbeat CPU 2 instructions: 40000001 cycles: 10005209 heartbeat IPC: 4 cumulative IPC: 3.998 (Simulation time: 00 hr 32 min 04 sec)
Heartbeat CPU 7 instructions: 40000001 cycles: 10005215 heartbeat IPC: 4 cumulative IPC: 3.998 (Simulation time: 00 hr 32 min 04 sec)
Heartbeat CPU 4 instructions: 40000001 cycles: 10005240 heartbeat IPC: 4 cumulative IPC: 3.998 (Simulation time: 00 hr 32 min 04 sec)
Heartbeat CPU 3 instructions: 40000001 cycles: 10005262 heartbeat IPC: 4 cumulative IPC: 3.998 (Simulation time: 00 hr 32 min 04 sec)
*** Reached end of trace: (1, "traces/canneal_big1.champsimtrace")
*** Reached end of trace: (6, "traces/canneal_big1.champsimtrace")
*** Reached end of trace: (2, "traces/canneal_big2.champsimtrace")
*** Reached end of trace: (7, "traces/canneal_big2.champsimtrace")
*** Reached end of trace: (4, "traces/canneal_big4.champsimtrace")
*** Reached end of trace: (3, "traces/canneal_big3.champsimtrace")
*** Reached end of trace: (0, "traces/canneal_big0.champsimtrace")
Heartbeat CPU 0 instructions: 30000009 cycles: 11777296 heartbeat IPC: 2.6 cumulative IPC: 2.547 (Simulation time: 00 hr 38 min 27 sec)
*** Reached end of trace: (5, "traces/canneal_big0.champsimtrace")
Heartbeat CPU 5 instructions: 30000009 cycles: 11794312 heartbeat IPC: 2.595 cumulative IPC: 2.544 (Simulation time: 00 hr 38 min 30 sec)
*** Reached end of trace: (2, "traces/canneal_big2.champsimtrace")
*** Reached end of trace: (7, "traces/canneal_big2.champsimtrace")
*** Reached end of trace: (4, "traces/canneal_big4.champsimtrace")
*** Reached end of trace: (3, "traces/canneal_big3.champsimtrace")
Heartbeat CPU 2 instructions: 50000001 cycles: 12505209 heartbeat IPC: 4 cumulative IPC: 3.998 (Simulation time: 00 hr 40 min 52 sec)
Warmup finished CPU 2 instructions: 50000001 cycles: 12505209 cumulative IPC: 3.998 (Simulation time: 00 hr 40 min 52 sec)
Heartbeat CPU 7 instructions: 50000001 cycles: 12505215 heartbeat IPC: 4 cumulative IPC: 3.998 (Simulation time: 00 hr 40 min 52 sec)
Warmup finished CPU 7 instructions: 50000001 cycles: 12505215 cumulative IPC: 3.998 (Simulation time: 00 hr 40 min 52 sec)
Heartbeat CPU 4 instructions: 50000001 cycles: 12505240 heartbeat IPC: 4 cumulative IPC: 3.998 (Simulation time: 00 hr 40 min 52 sec)
Warmup finished CPU 4 instructions: 50000001 cycles: 12505240 cumulative IPC: 3.998 (Simulation time: 00 hr 40 min 52 sec)
Heartbeat CPU 3 instructions: 50000001 cycles: 12505262 heartbeat IPC: 4 cumulative IPC: 3.998 (Simulation time: 00 hr 40 min 52 sec)
Warmup finished CPU 3 instructions: 50000001 cycles: 12505262 cumulative IPC: 3.998 (Simulation time: 00 hr 40 min 52 sec)
*** Reached end of trace: (1, "traces/canneal_big1.champsimtrace")
Heartbeat CPU 1 instructions: 20000004 cycles: 13549629 heartbeat IPC: 1.757 cumulative IPC: 1.476 (Simulation time: 00 hr 44 min 23 sec)
*** Reached end of trace: (6, "traces/canneal_big1.champsimtrace")
Heartbeat CPU 6 instructions: 20000004 cycles: 13631150 heartbeat IPC: 1.745 cumulative IPC: 1.467 (Simulation time: 00 hr 44 min 41 sec)
*** Reached end of trace: (0, "traces/canneal_big0.champsimtrace")
*** Reached end of trace: (5, "traces/canneal_big0.champsimtrace")
*** Reached end of trace: (2, "traces/canneal_big2.champsimtrace")
*** Reached end of trace: (7, "traces/canneal_big2.champsimtrace")
*** Reached end of trace: (4, "traces/canneal_big4.champsimtrace")
*** Reached end of trace: (3, "traces/canneal_big3.champsimtrace")
*** Reached end of trace: (2, "traces/canneal_big2.champsimtrace")
*** Reached end of trace: (7, "traces/canneal_big2.champsimtrace")
*** Reached end of trace: (4, "traces/canneal_big4.champsimtrace")
*** Reached end of trace: (3, "traces/canneal_big3.champsimtrace")
Heartbeat CPU 2 instructions: 60000001 cycles: 15005209 heartbeat IPC: 4 cumulative IPC: 3.999 (Simulation time: 00 hr 48 min 22 sec)
Heartbeat CPU 7 instructions: 60000001 cycles: 15005215 heartbeat IPC: 4 cumulative IPC: 3.999 (Simulation time: 00 hr 48 min 22 sec)
Heartbeat CPU 4 instructions: 60000001 cycles: 15005240 heartbeat IPC: 4 cumulative IPC: 3.999 (Simulation time: 00 hr 48 min 22 sec)
Heartbeat CPU 3 instructions: 60000001 cycles: 15005262 heartbeat IPC: 4 cumulative IPC: 3.999 (Simulation time: 00 hr 48 min 22 sec)
*** Reached end of trace: (0, "traces/canneal_big0.champsimtrace")
Heartbeat CPU 0 instructions: 40000012 cycles: 15623467 heartbeat IPC: 2.6 cumulative IPC: 2.56 (Simulation time: 00 hr 49 min 55 sec)
*** Reached end of trace: (5, "traces/canneal_big0.champsimtrace")
Heartbeat CPU 5 instructions: 40000012 cycles: 15648433 heartbeat IPC: 2.595 cumulative IPC: 2.556 (Simulation time: 00 hr 49 min 59 sec)
*** Reached end of trace: (2, "traces/canneal_big2.champsimtrace")
*** Reached end of trace: (7, "traces/canneal_big2.champsimtrace")
*** Reached end of trace: (4, "traces/canneal_big4.champsimtrace")
*** Reached end of trace: (3, "traces/canneal_big3.champsimtrace")
*** Reached end of trace: (1, "traces/canneal_big1.champsimtrace")
*** Reached end of trace: (6, "traces/canneal_big1.champsimtrace")
*** Reached end of trace: (2, "traces/canneal_big2.champsimtrace")
*** Reached end of trace: (7, "traces/canneal_big2.champsimtrace")
*** Reached end of trace: (4, "traces/canneal_big4.champsimtrace")
*** Reached end of trace: (3, "traces/canneal_big3.champsimtrace")
Heartbeat CPU 2 instructions: 70000001 cycles: 17505209 heartbeat IPC: 4 cumulative IPC: 3.999 (Simulation time: 00 hr 55 min 44 sec)
Heartbeat CPU 7 instructions: 70000001 cycles: 17505215 heartbeat IPC: 4 cumulative IPC: 3.999 (Simulation time: 00 hr 55 min 44 sec)
Heartbeat CPU 4 instructions: 70000001 cycles: 17505240 heartbeat IPC: 4 cumulative IPC: 3.999 (Simulation time: 00 hr 55 min 44 sec)
Heartbeat CPU 3 instructions: 70000001 cycles: 17505262 heartbeat IPC: 4 cumulative IPC: 3.999 (Simulation time: 00 hr 55 min 44 sec)
*** Reached end of trace: (0, "traces/canneal_big0.champsimtrace")
*** Reached end of trace: (5, "traces/canneal_big0.champsimtrace")
*** Reached end of trace: (2, "traces/canneal_big2.champsimtrace")
*** Reached end of trace: (7, "traces/canneal_big2.champsimtrace")
*** Reached end of trace: (4, "traces/canneal_big4.champsimtrace")
*** Reached end of trace: (3, "traces/canneal_big3.champsimtrace")
*** Reached end of trace: (1, "traces/canneal_big1.champsimtrace")
Heartbeat CPU 1 instructions: 30000004 cycles: 19242220 heartbeat IPC: 1.757 cumulative IPC: 1.559 (Simulation time: 01 hr 02 min 05 sec)
*** Reached end of trace: (6, "traces/canneal_big1.champsimtrace")
Heartbeat CPU 6 instructions: 30000004 cycles: 19363346 heartbeat IPC: 1.745 cumulative IPC: 1.549 (Simulation time: 01 hr 02 min 33 sec)
*** Reached end of trace: (0, "traces/canneal_big0.champsimtrace")
Warmup finished CPU 0 instructions: 50000000 cycles: 19469635 cumulative IPC: 2.568 (Simulation time: 01 hr 02 min 55 sec)
Heartbeat CPU 0 instructions: 50000015 cycles: 19469638 heartbeat IPC: 2.6 cumulative IPC: 2.568 (Simulation time: 01 hr 02 min 55 sec)
*** Reached end of trace: (5, "traces/canneal_big0.champsimtrace")
Warmup finished CPU 5 instructions: 50000000 cycles: 19502551 cumulative IPC: 2.564 (Simulation time: 01 hr 03 min 02 sec)
Heartbeat CPU 5 instructions: 50000015 cycles: 19502554 heartbeat IPC: 2.595 cumulative IPC: 2.564 (Simulation time: 01 hr 03 min 02 sec)
*** Reached end of trace: (2, "traces/canneal_big2.champsimtrace")
*** Reached end of trace: (7, "traces/canneal_big2.champsimtrace")
*** Reached end of trace: (4, "traces/canneal_big4.champsimtrace")
*** Reached end of trace: (3, "traces/canneal_big3.champsimtrace")
Heartbeat CPU 2 instructions: 80000001 cycles: 20005209 heartbeat IPC: 4 cumulative IPC: 3.999 (Simulation time: 01 hr 04 min 48 sec)
Heartbeat CPU 7 instructions: 80000001 cycles: 20005215 heartbeat IPC: 4 cumulative IPC: 3.999 (Simulation time: 01 hr 04 min 48 sec)
Heartbeat CPU 4 instructions: 80000001 cycles: 20005240 heartbeat IPC: 4 cumulative IPC: 3.999 (Simulation time: 01 hr 04 min 48 sec)
Heartbeat CPU 3 instructions: 80000001 cycles: 20005262 heartbeat IPC: 4 cumulative IPC: 3.999 (Simulation time: 01 hr 04 min 48 sec)
*** Reached end of trace: (2, "traces/canneal_big2.champsimtrace")
*** Reached end of trace: (7, "traces/canneal_big2.champsimtrace")
*** Reached end of trace: (4, "traces/canneal_big4.champsimtrace")
*** Reached end of trace: (3, "traces/canneal_big3.champsimtrace")
*** Reached end of trace: (0, "traces/canneal_big0.champsimtrace")
*** Reached end of trace: (5, "traces/canneal_big0.champsimtrace")
*** Reached end of trace: (1, "traces/canneal_big1.champsimtrace")
*** Reached end of trace: (6, "traces/canneal_big1.champsimtrace")
*** Reached end of trace: (2, "traces/canneal_big2.champsimtrace")
*** Reached end of trace: (7, "traces/canneal_big2.champsimtrace")
*** Reached end of trace: (4, "traces/canneal_big4.champsimtrace")
*** Reached end of trace: (3, "traces/canneal_big3.champsimtrace")
Heartbeat CPU 2 instructions: 90000001 cycles: 22505209 heartbeat IPC: 4 cumulative IPC: 3.999 (Simulation time: 01 hr 13 min 25 sec)
Heartbeat CPU 7 instructions: 90000001 cycles: 22505215 heartbeat IPC: 4 cumulative IPC: 3.999 (Simulation time: 01 hr 13 min 25 sec)
Heartbeat CPU 4 instructions: 90000001 cycles: 22505240 heartbeat IPC: 4 cumulative IPC: 3.999 (Simulation time: 01 hr 13 min 25 sec)
Heartbeat CPU 3 instructions: 90000001 cycles: 22505262 heartbeat IPC: 4 cumulative IPC: 3.999 (Simulation time: 01 hr 13 min 25 sec)
*** Reached end of trace: (0, "traces/canneal_big0.champsimtrace")
Heartbeat CPU 0 instructions: 60000018 cycles: 23315809 heartbeat IPC: 2.6 cumulative IPC: 2.573 (Simulation time: 01 hr 16 min 24 sec)
*** Reached end of trace: (5, "traces/canneal_big0.champsimtrace")
Heartbeat CPU 5 instructions: 60000018 cycles: 23356675 heartbeat IPC: 2.595 cumulative IPC: 2.569 (Simulation time: 01 hr 16 min 33 sec)
*** Reached end of trace: (2, "traces/canneal_big2.champsimtrace")
*** Reached end of trace: (7, "traces/canneal_big2.champsimtrace")
*** Reached end of trace: (4, "traces/canneal_big4.champsimtrace")
*** Reached end of trace: (3, "traces/canneal_big3.champsimtrace")
*** Reached end of trace: (1, "traces/canneal_big1.champsimtrace")
Heartbeat CPU 1 instructions: 40000006 cycles: 24934911 heartbeat IPC: 1.757 cumulative IPC: 1.604 (Simulation time: 01 hr 22 min 17 sec)
*** Reached end of trace: (2, "traces/canneal_big2.champsimtrace")
*** Reached end of trace: (7, "traces/canneal_big2.champsimtrace")
*** Reached end of trace: (4, "traces/canneal_big4.champsimtrace")
*** Reached end of trace: (3, "traces/canneal_big3.champsimtrace")
Heartbeat CPU 2 instructions: 100000001 cycles: 25005209 heartbeat IPC: 4 cumulative IPC: 3.999 (Simulation time: 01 hr 22 min 30 sec)
Heartbeat CPU 7 instructions: 100000001 cycles: 25005215 heartbeat IPC: 4 cumulative IPC: 3.999 (Simulation time: 01 hr 22 min 30 sec)
Heartbeat CPU 4 instructions: 100000001 cycles: 25005240 heartbeat IPC: 4 cumulative IPC: 3.999 (Simulation time: 01 hr 22 min 30 sec)
Heartbeat CPU 3 instructions: 100000001 cycles: 25005262 heartbeat IPC: 4 cumulative IPC: 3.999 (Simulation time: 01 hr 22 min 30 sec)
*** Reached end of trace: (6, "traces/canneal_big1.champsimtrace")
Heartbeat CPU 6 instructions: 40000006 cycles: 25095565 heartbeat IPC: 1.745 cumulative IPC: 1.594 (Simulation time: 01 hr 22 min 44 sec)
*** Reached end of trace: (0, "traces/canneal_big0.champsimtrace")
*** Reached end of trace: (5, "traces/canneal_big0.champsimtrace")
*** Reached end of trace: (2, "traces/canneal_big2.champsimtrace")
*** Reached end of trace: (7, "traces/canneal_big2.champsimtrace")
*** Reached end of trace: (4, "traces/canneal_big4.champsimtrace")
*** Reached end of trace: (3, "traces/canneal_big3.champsimtrace")
*** Reached end of trace: (0, "traces/canneal_big0.champsimtrace")
Heartbeat CPU 0 instructions: 70000021 cycles: 27161980 heartbeat IPC: 2.6 cumulative IPC: 2.577 (Simulation time: 01 hr 28 min 06 sec)
*** Reached end of trace: (5, "traces/canneal_big0.champsimtrace")
Heartbeat CPU 5 instructions: 70000021 cycles: 27210796 heartbeat IPC: 2.595 cumulative IPC: 2.573 (Simulation time: 01 hr 28 min 14 sec)
*** Reached end of trace: (2, "traces/canneal_big2.champsimtrace")
*** Reached end of trace: (7, "traces/canneal_big2.champsimtrace")
*** Reached end of trace: (4, "traces/canneal_big4.champsimtrace")
*** Reached end of trace: (3, "traces/canneal_big3.champsimtrace")
Heartbeat CPU 2 instructions: 110000001 cycles: 27505209 heartbeat IPC: 4 cumulative IPC: 3.999 (Simulation time: 01 hr 29 min 01 sec)
Heartbeat CPU 7 instructions: 110000001 cycles: 27505215 heartbeat IPC: 4 cumulative IPC: 3.999 (Simulation time: 01 hr 29 min 01 sec)
Heartbeat CPU 4 instructions: 110000001 cycles: 27505240 heartbeat IPC: 4 cumulative IPC: 3.999 (Simulation time: 01 hr 29 min 01 sec)
Heartbeat CPU 3 instructions: 110000001 cycles: 27505262 heartbeat IPC: 4 cumulative IPC: 3.999 (Simulation time: 01 hr 29 min 01 sec)
*** Reached end of trace: (1, "traces/canneal_big1.champsimtrace")
*** Reached end of trace: (6, "traces/canneal_big1.champsimtrace")
*** Reached end of trace: (2, "traces/canneal_big2.champsimtrace")
*** Reached end of trace: (7, "traces/canneal_big2.champsimtrace")
*** Reached end of trace: (4, "traces/canneal_big4.champsimtrace")
*** Reached end of trace: (3, "traces/canneal_big3.champsimtrace")
*** Reached end of trace: (0, "traces/canneal_big0.champsimtrace")
*** Reached end of trace: (5, "traces/canneal_big0.champsimtrace")
*** Reached end of trace: (2, "traces/canneal_big2.champsimtrace")
*** Reached end of trace: (7, "traces/canneal_big2.champsimtrace")
*** Reached end of trace: (4, "traces/canneal_big4.champsimtrace")
*** Reached end of trace: (3, "traces/canneal_big3.champsimtrace")
Heartbeat CPU 2 instructions: 120000001 cycles: 30005209 heartbeat IPC: 4 cumulative IPC: 3.999 (Simulation time: 01 hr 35 min 35 sec)
Heartbeat CPU 7 instructions: 120000001 cycles: 30005215 heartbeat IPC: 4 cumulative IPC: 3.999 (Simulation time: 01 hr 35 min 35 sec)
Heartbeat CPU 4 instructions: 120000001 cycles: 30005240 heartbeat IPC: 4 cumulative IPC: 3.999 (Simulation time: 01 hr 35 min 35 sec)
Heartbeat CPU 3 instructions: 120000001 cycles: 30005262 heartbeat IPC: 4 cumulative IPC: 3.999 (Simulation time: 01 hr 35 min 35 sec)
*** Reached end of trace: (1, "traces/canneal_big1.champsimtrace")
Warmup finished CPU 1 instructions: 50000000 cycles: 30627539 cumulative IPC: 1.633 (Simulation time: 01 hr 37 min 05 sec)
Heartbeat CPU 1 instructions: 50000008 cycles: 30627562 heartbeat IPC: 1.757 cumulative IPC: 1.633 (Simulation time: 01 hr 37 min 05 sec)
*** Reached end of trace: (6, "traces/canneal_big1.champsimtrace")
Warmup finished CPU 6 instructions: 50000000 cycles: 30827796 cumulative IPC: 1.622 (Simulation time: 01 hr 37 min 34 sec)
Warmup complete CPU 7 instructions: 123290325 cycles: 30827796 cumulative IPC: 3.999 (Simulation time: 01 hr 37 min 34 sec)
Warmup complete CPU 6 instructions: 50000000 cycles: 30827796 cumulative IPC: 1.622 (Simulation time: 01 hr 37 min 34 sec)
Warmup complete CPU 5 instructions: 79428404 cycles: 30827796 cumulative IPC: 2.577 (Simulation time: 01 hr 37 min 34 sec)
Warmup complete CPU 4 instructions: 123290225 cycles: 30827796 cumulative IPC: 3.999 (Simulation time: 01 hr 37 min 34 sec)
Warmup complete CPU 3 instructions: 123290137 cycles: 30827796 cumulative IPC: 3.999 (Simulation time: 01 hr 37 min 34 sec)
Warmup complete CPU 2 instructions: 123290349 cycles: 30827796 cumulative IPC: 3.999 (Simulation time: 01 hr 37 min 34 sec)
Warmup complete CPU 1 instructions: 50306951 cycles: 30827796 cumulative IPC: 1.632 (Simulation time: 01 hr 37 min 34 sec)
Warmup complete CPU 0 instructions: 79564479 cycles: 30827796 cumulative IPC: 2.581 (Simulation time: 01 hr 37 min 34 sec)
Heartbeat CPU 6 instructions: 50000008 cycles: 30828688 heartbeat IPC: 1.744 cumulative IPC: 0.008969 (Simulation time: 01 hr 37 min 34 sec)
*** Reached end of trace: (0, "traces/canneal_big0.champsimtrace")
Heartbeat CPU 0 instructions: 80000024 cycles: 31043615 heartbeat IPC: 2.576 cumulative IPC: 2.018 (Simulation time: 01 hr 38 min 06 sec)
*** Reached end of trace: (5, "traces/canneal_big0.champsimtrace")
Heartbeat CPU 5 instructions: 80000024 cycles: 31105784 heartbeat IPC: 2.567 cumulative IPC: 2.056 (Simulation time: 01 hr 38 min 15 sec)
*** Reached end of trace: (2, "traces/canneal_big2.champsimtrace")
*** Reached end of trace: (7, "traces/canneal_big2.champsimtrace")
*** Reached end of trace: (4, "traces/canneal_big4.champsimtrace")
*** Reached end of trace: (3, "traces/canneal_big3.champsimtrace")
*** Reached end of trace: (2, "traces/canneal_big2.champsimtrace")
*** Reached end of trace: (7, "traces/canneal_big2.champsimtrace")
*** Reached end of trace: (4, "traces/canneal_big4.champsimtrace")
*** Reached end of trace: (3, "traces/canneal_big3.champsimtrace")
Heartbeat CPU 2 instructions: 130000001 cycles: 32505209 heartbeat IPC: 4 cumulative IPC: 4 (Simulation time: 01 hr 42 min 17 sec)
Heartbeat CPU 7 instructions: 130000001 cycles: 32505215 heartbeat IPC: 4 cumulative IPC: 4 (Simulation time: 01 hr 42 min 17 sec)
Heartbeat CPU 4 instructions: 130000001 cycles: 32505240 heartbeat IPC: 4 cumulative IPC: 4 (Simulation time: 01 hr 42 min 17 sec)
Heartbeat CPU 3 instructions: 130000001 cycles: 32505262 heartbeat IPC: 4 cumulative IPC: 4 (Simulation time: 01 hr 42 min 17 sec)
*** Reached end of trace: (2, "traces/canneal_big2.champsimtrace")
*** Reached end of trace: (7, "traces/canneal_big2.champsimtrace")
*** Reached end of trace: (4, "traces/canneal_big4.champsimtrace")
*** Reached end of trace: (3, "traces/canneal_big3.champsimtrace")
*** Reached end of trace: (0, "traces/canneal_big0.champsimtrace")
*** Reached end of trace: (5, "traces/canneal_big0.champsimtrace")
*** Reached end of trace: (2, "traces/canneal_big2.champsimtrace")
*** Reached end of trace: (7, "traces/canneal_big2.champsimtrace")
*** Reached end of trace: (4, "traces/canneal_big4.champsimtrace")
*** Reached end of trace: (3, "traces/canneal_big3.champsimtrace")
Heartbeat CPU 2 instructions: 140000001 cycles: 35005209 heartbeat IPC: 4 cumulative IPC: 4 (Simulation time: 01 hr 50 min 04 sec)
Heartbeat CPU 7 instructions: 140000001 cycles: 35005215 heartbeat IPC: 4 cumulative IPC: 4 (Simulation time: 01 hr 50 min 04 sec)
Heartbeat CPU 4 instructions: 140000001 cycles: 35005240 heartbeat IPC: 4 cumulative IPC: 4 (Simulation time: 01 hr 50 min 04 sec)
Heartbeat CPU 3 instructions: 140000001 cycles: 35005262 heartbeat IPC: 4 cumulative IPC: 4 (Simulation time: 01 hr 50 min 04 sec)
*** Reached end of trace: (2, "traces/canneal_big2.champsimtrace")
*** Reached end of trace: (7, "traces/canneal_big2.champsimtrace")
*** Reached end of trace: (4, "traces/canneal_big4.champsimtrace")
*** Reached end of trace: (3, "traces/canneal_big3.champsimtrace")
*** Reached end of trace: (0, "traces/canneal_big0.champsimtrace")
*** Reached end of trace: (2, "traces/canneal_big2.champsimtrace")
*** Reached end of trace: (7, "traces/canneal_big2.champsimtrace")
*** Reached end of trace: (4, "traces/canneal_big4.champsimtrace")
*** Reached end of trace: (3, "traces/canneal_big3.champsimtrace")
Heartbeat CPU 2 instructions: 150000001 cycles: 37505209 heartbeat IPC: 4 cumulative IPC: 4 (Simulation time: 01 hr 56 min 06 sec)
Heartbeat CPU 7 instructions: 150000001 cycles: 37505215 heartbeat IPC: 4 cumulative IPC: 4 (Simulation time: 01 hr 56 min 06 sec)
Heartbeat CPU 4 instructions: 150000001 cycles: 37505240 heartbeat IPC: 4 cumulative IPC: 4 (Simulation time: 01 hr 56 min 06 sec)
Heartbeat CPU 3 instructions: 150000001 cycles: 37505262 heartbeat IPC: 4 cumulative IPC: 4 (Simulation time: 01 hr 56 min 06 sec)
Heartbeat CPU 0 instructions: 90000027 cycles: 37505584 heartbeat IPC: 1.548 cumulative IPC: 1.563 (Simulation time: 01 hr 56 min 06 sec)
*** Reached end of trace: (5, "traces/canneal_big0.champsimtrace")
Heartbeat CPU 5 instructions: 90000027 cycles: 37630170 heartbeat IPC: 1.533 cumulative IPC: 1.554 (Simulation time: 01 hr 56 min 23 sec)
*** Reached end of trace: (2, "traces/canneal_big2.champsimtrace")
*** Reached end of trace: (7, "traces/canneal_big2.champsimtrace")
*** Reached end of trace: (4, "traces/canneal_big4.champsimtrace")
*** Reached end of trace: (3, "traces/canneal_big3.champsimtrace")
*** Reached end of trace: (2, "traces/canneal_big2.champsimtrace")
*** Reached end of trace: (7, "traces/canneal_big2.champsimtrace")
*** Reached end of trace: (4, "traces/canneal_big4.champsimtrace")
*** Reached end of trace: (3, "traces/canneal_big3.champsimtrace")
Heartbeat CPU 2 instructions: 160000001 cycles: 40005209 heartbeat IPC: 4 cumulative IPC: 4 (Simulation time: 02 hr 02 min 14 sec)
Heartbeat CPU 7 instructions: 160000001 cycles: 40005215 heartbeat IPC: 4 cumulative IPC: 4 (Simulation time: 02 hr 02 min 14 sec)
Heartbeat CPU 4 instructions: 160000001 cycles: 40005240 heartbeat IPC: 4 cumulative IPC: 4 (Simulation time: 02 hr 02 min 14 sec)
Heartbeat CPU 3 instructions: 160000001 cycles: 40005262 heartbeat IPC: 4 cumulative IPC: 4 (Simulation time: 02 hr 02 min 14 sec)
*** Reached end of trace: (0, "traces/canneal_big0.champsimtrace")
*** Reached end of trace: (5, "traces/canneal_big0.champsimtrace")
*** Reached end of trace: (2, "traces/canneal_big2.champsimtrace")
*** Reached end of trace: (7, "traces/canneal_big2.champsimtrace")
*** Reached end of trace: (4, "traces/canneal_big4.champsimtrace")
*** Reached end of trace: (3, "traces/canneal_big3.champsimtrace")
*** Reached end of trace: (2, "traces/canneal_big2.champsimtrace")
*** Reached end of trace: (7, "traces/canneal_big2.champsimtrace")
*** Reached end of trace: (4, "traces/canneal_big4.champsimtrace")
*** Reached end of trace: (3, "traces/canneal_big3.champsimtrace")
Heartbeat CPU 2 instructions: 170000001 cycles: 42505209 heartbeat IPC: 4 cumulative IPC: 4 (Simulation time: 02 hr 10 min 21 sec)
Heartbeat CPU 7 instructions: 170000001 cycles: 42505215 heartbeat IPC: 4 cumulative IPC: 4 (Simulation time: 02 hr 10 min 21 sec)
Heartbeat CPU 4 instructions: 170000001 cycles: 42505240 heartbeat IPC: 4 cumulative IPC: 4 (Simulation time: 02 hr 10 min 21 sec)
Heartbeat CPU 3 instructions: 170000001 cycles: 42505262 heartbeat IPC: 4 cumulative IPC: 4 (Simulation time: 02 hr 10 min 21 sec)
*** Reached end of trace: (2, "traces/canneal_big2.champsimtrace")
*** Reached end of trace: (7, "traces/canneal_big2.champsimtrace")
*** Reached end of trace: (4, "traces/canneal_big4.champsimtrace")
*** Reached end of trace: (3, "traces/canneal_big3.champsimtrace")
*** Reached end of trace: (0, "traces/canneal_big0.champsimtrace")
Heartbeat CPU 0 instructions: 100000027 cycles: 43978475 heartbeat IPC: 1.545 cumulative IPC: 1.554 (Simulation time: 02 hr 15 min 28 sec)
*** Reached end of trace: (5, "traces/canneal_big0.champsimtrace")
Heartbeat CPU 5 instructions: 100000027 cycles: 44171034 heartbeat IPC: 1.529 cumulative IPC: 1.542 (Simulation time: 02 hr 16 min 08 sec)
*** Reached end of trace: (2, "traces/canneal_big2.champsimtrace")
*** Reached end of trace: (7, "traces/canneal_big2.champsimtrace")
*** Reached end of trace: (4, "traces/canneal_big4.champsimtrace")
*** Reached end of trace: (3, "traces/canneal_big3.champsimtrace")
Heartbeat CPU 2 instructions: 180000001 cycles: 45005209 heartbeat IPC: 4 cumulative IPC: 4 (Simulation time: 02 hr 18 min 41 sec)
Heartbeat CPU 7 instructions: 180000001 cycles: 45005215 heartbeat IPC: 4 cumulative IPC: 4 (Simulation time: 02 hr 18 min 41 sec)
Heartbeat CPU 4 instructions: 180000001 cycles: 45005240 heartbeat IPC: 4 cumulative IPC: 4 (Simulation time: 02 hr 18 min 41 sec)
Heartbeat CPU 3 instructions: 180000001 cycles: 45005262 heartbeat IPC: 4 cumulative IPC: 4 (Simulation time: 02 hr 18 min 41 sec)
*** Reached end of trace: (2, "traces/canneal_big2.champsimtrace")
*** Reached end of trace: (7, "traces/canneal_big2.champsimtrace")
*** Reached end of trace: (4, "traces/canneal_big4.champsimtrace")
*** Reached end of trace: (3, "traces/canneal_big3.champsimtrace")
*** Reached end of trace: (0, "traces/canneal_big0.champsimtrace")
*** Reached end of trace: (5, "traces/canneal_big0.champsimtrace")
*** Reached end of trace: (2, "traces/canneal_big2.champsimtrace")
*** Reached end of trace: (7, "traces/canneal_big2.champsimtrace")
*** Reached end of trace: (4, "traces/canneal_big4.champsimtrace")
*** Reached end of trace: (3, "traces/canneal_big3.champsimtrace")
Heartbeat CPU 2 instructions: 190000001 cycles: 47505209 heartbeat IPC: 4 cumulative IPC: 4 (Simulation time: 02 hr 27 min 34 sec)
Heartbeat CPU 7 instructions: 190000001 cycles: 47505215 heartbeat IPC: 4 cumulative IPC: 4 (Simulation time: 02 hr 27 min 34 sec)
Heartbeat CPU 4 instructions: 190000001 cycles: 47505240 heartbeat IPC: 4 cumulative IPC: 4 (Simulation time: 02 hr 27 min 34 sec)
Heartbeat CPU 3 instructions: 190000001 cycles: 47505262 heartbeat IPC: 4 cumulative IPC: 4 (Simulation time: 02 hr 27 min 34 sec)
*** Reached end of trace: (2, "traces/canneal_big2.champsimtrace")
*** Reached end of trace: (7, "traces/canneal_big2.champsimtrace")
*** Reached end of trace: (4, "traces/canneal_big4.champsimtrace")
*** Reached end of trace: (3, "traces/canneal_big3.champsimtrace")
*** Reached end of trace: (2, "traces/canneal_big2.champsimtrace")
*** Reached end of trace: (7, "traces/canneal_big2.champsimtrace")
*** Reached end of trace: (4, "traces/canneal_big4.champsimtrace")
*** Reached end of trace: (3, "traces/canneal_big3.champsimtrace")
Heartbeat CPU 2 instructions: 200000001 cycles: 50005209 heartbeat IPC: 4 cumulative IPC: 4 (Simulation time: 02 hr 35 min 15 sec)
Heartbeat CPU 7 instructions: 200000001 cycles: 50005215 heartbeat IPC: 4 cumulative IPC: 4 (Simulation time: 02 hr 35 min 15 sec)
Heartbeat CPU 4 instructions: 200000001 cycles: 50005240 heartbeat IPC: 4 cumulative IPC: 4 (Simulation time: 02 hr 35 min 15 sec)
Heartbeat CPU 3 instructions: 200000001 cycles: 50005262 heartbeat IPC: 4 cumulative IPC: 4 (Simulation time: 02 hr 35 min 15 sec)
*** Reached end of trace: (0, "traces/canneal_big0.champsimtrace")
Heartbeat CPU 0 instructions: 110000030 cycles: 50440789 heartbeat IPC: 1.547 cumulative IPC: 1.552 (Simulation time: 02 hr 36 min 24 sec)
*** Reached end of trace: (5, "traces/canneal_big0.champsimtrace")
Heartbeat CPU 5 instructions: 110000030 cycles: 50664785 heartbeat IPC: 1.54 cumulative IPC: 1.541 (Simulation time: 02 hr 37 min 04 sec)
*** Reached end of trace: (2, "traces/canneal_big2.champsimtrace")
*** Reached end of trace: (7, "traces/canneal_big2.champsimtrace")
*** Reached end of trace: (4, "traces/canneal_big4.champsimtrace")
*** Reached end of trace: (3, "traces/canneal_big3.champsimtrace")
*** Reached end of trace: (2, "traces/canneal_big2.champsimtrace")
*** Reached end of trace: (7, "traces/canneal_big2.champsimtrace")
*** Reached end of trace: (4, "traces/canneal_big4.champsimtrace")
*** Reached end of trace: (3, "traces/canneal_big3.champsimtrace")
Heartbeat CPU 2 instructions: 210000001 cycles: 52505209 heartbeat IPC: 4 cumulative IPC: 4 (Simulation time: 02 hr 41 min 35 sec)
Heartbeat CPU 7 instructions: 210000001 cycles: 52505215 heartbeat IPC: 4 cumulative IPC: 4 (Simulation time: 02 hr 41 min 35 sec)
Heartbeat CPU 4 instructions: 210000001 cycles: 52505240 heartbeat IPC: 4 cumulative IPC: 4 (Simulation time: 02 hr 41 min 35 sec)
Heartbeat CPU 3 instructions: 210000001 cycles: 52505262 heartbeat IPC: 4 cumulative IPC: 4 (Simulation time: 02 hr 41 min 35 sec)
*** Reached end of trace: (0, "traces/canneal_big0.champsimtrace")
*** Reached end of trace: (2, "traces/canneal_big2.champsimtrace")
*** Reached end of trace: (7, "traces/canneal_big2.champsimtrace")
*** Reached end of trace: (4, "traces/canneal_big4.champsimtrace")
*** Reached end of trace: (3, "traces/canneal_big3.champsimtrace")
*** Reached end of trace: (5, "traces/canneal_big0.champsimtrace")
*** Reached end of trace: (2, "traces/canneal_big2.champsimtrace")
*** Reached end of trace: (7, "traces/canneal_big2.champsimtrace")
*** Reached end of trace: (4, "traces/canneal_big4.champsimtrace")
*** Reached end of trace: (3, "traces/canneal_big3.champsimtrace")
Heartbeat CPU 2 instructions: 220000001 cycles: 55005209 heartbeat IPC: 4 cumulative IPC: 4 (Simulation time: 02 hr 47 min 49 sec)
Heartbeat CPU 7 instructions: 220000001 cycles: 55005215 heartbeat IPC: 4 cumulative IPC: 4 (Simulation time: 02 hr 47 min 49 sec)
Heartbeat CPU 4 instructions: 220000001 cycles: 55005240 heartbeat IPC: 4 cumulative IPC: 4 (Simulation time: 02 hr 47 min 49 sec)
Heartbeat CPU 3 instructions: 220000001 cycles: 55005262 heartbeat IPC: 4 cumulative IPC: 4 (Simulation time: 02 hr 47 min 49 sec)
Simulation finished CPU 7 instructions: 100000000 cycles: 25000000 cumulative IPC: 4 (Simulation time: 02 hr 50 min 05 sec)
Simulation finished CPU 4 instructions: 100000000 cycles: 25000000 cumulative IPC: 4 (Simulation time: 02 hr 50 min 05 sec)
Simulation finished CPU 3 instructions: 100000000 cycles: 25000000 cumulative IPC: 4 (Simulation time: 02 hr 50 min 05 sec)
Simulation finished CPU 2 instructions: 100000000 cycles: 25000000 cumulative IPC: 4 (Simulation time: 02 hr 50 min 05 sec)
*** Reached end of trace: (2, "traces/canneal_big2.champsimtrace")
*** Reached end of trace: (7, "traces/canneal_big2.champsimtrace")
*** Reached end of trace: (4, "traces/canneal_big4.champsimtrace")
*** Reached end of trace: (3, "traces/canneal_big3.champsimtrace")
*** Reached end of trace: (0, "traces/canneal_big0.champsimtrace")
Heartbeat CPU 0 instructions: 120000031 cycles: 56896553 heartbeat IPC: 1.549 cumulative IPC: 1.551 (Simulation time: 02 hr 54 min 01 sec)
*** Reached end of trace: (5, "traces/canneal_big0.champsimtrace")
Heartbeat CPU 5 instructions: 120000033 cycles: 57184991 heartbeat IPC: 1.534 cumulative IPC: 1.539 (Simulation time: 02 hr 55 min 06 sec)
*** Reached end of trace: (2, "traces/canneal_big2.champsimtrace")
*** Reached end of trace: (7, "traces/canneal_big2.champsimtrace")
*** Reached end of trace: (4, "traces/canneal_big4.champsimtrace")
*** Reached end of trace: (3, "traces/canneal_big3.champsimtrace")
Heartbeat CPU 2 instructions: 230000001 cycles: 57505209 heartbeat IPC: 4 cumulative IPC: 4 (Simulation time: 02 hr 56 min 17 sec)
Heartbeat CPU 7 instructions: 230000001 cycles: 57505215 heartbeat IPC: 4 cumulative IPC: 4 (Simulation time: 02 hr 56 min 17 sec)
Heartbeat CPU 4 instructions: 230000001 cycles: 57505240 heartbeat IPC: 4 cumulative IPC: 4 (Simulation time: 02 hr 56 min 18 sec)
Heartbeat CPU 3 instructions: 230000001 cycles: 57505262 heartbeat IPC: 4 cumulative IPC: 4 (Simulation time: 02 hr 56 min 18 sec)
*** Reached end of trace: (2, "traces/canneal_big2.champsimtrace")
*** Reached end of trace: (7, "traces/canneal_big2.champsimtrace")
*** Reached end of trace: (4, "traces/canneal_big4.champsimtrace")
*** Reached end of trace: (3, "traces/canneal_big3.champsimtrace")
*** Reached end of trace: (2, "traces/canneal_big2.champsimtrace")
*** Reached end of trace: (7, "traces/canneal_big2.champsimtrace")
*** Reached end of trace: (4, "traces/canneal_big4.champsimtrace")
*** Reached end of trace: (3, "traces/canneal_big3.champsimtrace")
Heartbeat CPU 2 instructions: 240000001 cycles: 60005209 heartbeat IPC: 4 cumulative IPC: 4 (Simulation time: 03 hr 04 min 55 sec)
Heartbeat CPU 7 instructions: 240000001 cycles: 60005215 heartbeat IPC: 4 cumulative IPC: 4 (Simulation time: 03 hr 04 min 55 sec)
Heartbeat CPU 4 instructions: 240000001 cycles: 60005240 heartbeat IPC: 4 cumulative IPC: 4 (Simulation time: 03 hr 04 min 55 sec)
Heartbeat CPU 3 instructions: 240000001 cycles: 60005262 heartbeat IPC: 4 cumulative IPC: 4 (Simulation time: 03 hr 04 min 55 sec)
*** Reached end of trace: (0, "traces/canneal_big0.champsimtrace")
*** Reached end of trace: (1, "traces/canneal_big1.champsimtrace")
*** Reached end of trace: (5, "traces/canneal_big0.champsimtrace")
*** Reached end of trace: (2, "traces/canneal_big2.champsimtrace")
*** Reached end of trace: (7, "traces/canneal_big2.champsimtrace")
*** Reached end of trace: (4, "traces/canneal_big4.champsimtrace")
*** Reached end of trace: (3, "traces/canneal_big3.champsimtrace")
*** Reached end of trace: (2, "traces/canneal_big2.champsimtrace")
*** Reached end of trace: (7, "traces/canneal_big2.champsimtrace")
*** Reached end of trace: (4, "traces/canneal_big4.champsimtrace")
*** Reached end of trace: (3, "traces/canneal_big3.champsimtrace")
Heartbeat CPU 2 instructions: 250000001 cycles: 62505209 heartbeat IPC: 4 cumulative IPC: 4 (Simulation time: 03 hr 12 min 17 sec)
Heartbeat CPU 7 instructions: 250000001 cycles: 62505215 heartbeat IPC: 4 cumulative IPC: 4 (Simulation time: 03 hr 12 min 17 sec)
Heartbeat CPU 4 instructions: 250000001 cycles: 62505240 heartbeat IPC: 4 cumulative IPC: 4 (Simulation time: 03 hr 12 min 17 sec)
Heartbeat CPU 3 instructions: 250000001 cycles: 62505262 heartbeat IPC: 4 cumulative IPC: 4 (Simulation time: 03 hr 12 min 17 sec)
*** Reached end of trace: (6, "traces/canneal_big1.champsimtrace")
*** Reached end of trace: (0, "traces/canneal_big0.champsimtrace")
Heartbeat CPU 0 instructions: 130000034 cycles: 63395102 heartbeat IPC: 1.539 cumulative IPC: 1.549 (Simulation time: 03 hr 14 min 59 sec)
*** Reached end of trace: (5, "traces/canneal_big0.champsimtrace")
Heartbeat CPU 5 instructions: 130000036 cycles: 63720864 heartbeat IPC: 1.53 cumulative IPC: 1.537 (Simulation time: 03 hr 16 min 09 sec)
*** Reached end of trace: (2, "traces/canneal_big2.champsimtrace")
*** Reached end of trace: (7, "traces/canneal_big2.champsimtrace")
*** Reached end of trace: (4, "traces/canneal_big4.champsimtrace")
*** Reached end of trace: (3, "traces/canneal_big3.champsimtrace")
*** Reached end of trace: (2, "traces/canneal_big2.champsimtrace")
*** Reached end of trace: (7, "traces/canneal_big2.champsimtrace")
*** Reached end of trace: (4, "traces/canneal_big4.champsimtrace")
*** Reached end of trace: (3, "traces/canneal_big3.champsimtrace")
Heartbeat CPU 2 instructions: 260000001 cycles: 65005209 heartbeat IPC: 4 cumulative IPC: 4 (Simulation time: 03 hr 20 min 33 sec)
Heartbeat CPU 7 instructions: 260000001 cycles: 65005215 heartbeat IPC: 4 cumulative IPC: 4 (Simulation time: 03 hr 20 min 33 sec)
Heartbeat CPU 4 instructions: 260000001 cycles: 65005240 heartbeat IPC: 4 cumulative IPC: 4 (Simulation time: 03 hr 20 min 33 sec)
Heartbeat CPU 3 instructions: 260000001 cycles: 65005262 heartbeat IPC: 4 cumulative IPC: 4 (Simulation time: 03 hr 20 min 33 sec)
*** Reached end of trace: (2, "traces/canneal_big2.champsimtrace")
*** Reached end of trace: (7, "traces/canneal_big2.champsimtrace")
*** Reached end of trace: (4, "traces/canneal_big4.champsimtrace")
*** Reached end of trace: (3, "traces/canneal_big3.champsimtrace")
*** Reached end of trace: (0, "traces/canneal_big0.champsimtrace")
*** Reached end of trace: (5, "traces/canneal_big0.champsimtrace")
*** Reached end of trace: (2, "traces/canneal_big2.champsimtrace")
*** Reached end of trace: (7, "traces/canneal_big2.champsimtrace")
*** Reached end of trace: (4, "traces/canneal_big4.champsimtrace")
*** Reached end of trace: (3, "traces/canneal_big3.champsimtrace")
Heartbeat CPU 2 instructions: 270000001 cycles: 67505209 heartbeat IPC: 4 cumulative IPC: 4 (Simulation time: 03 hr 28 min 42 sec)
Heartbeat CPU 7 instructions: 270000001 cycles: 67505215 heartbeat IPC: 4 cumulative IPC: 4 (Simulation time: 03 hr 28 min 42 sec)
Heartbeat CPU 4 instructions: 270000001 cycles: 67505240 heartbeat IPC: 4 cumulative IPC: 4 (Simulation time: 03 hr 28 min 42 sec)
Heartbeat CPU 3 instructions: 270000001 cycles: 67505262 heartbeat IPC: 4 cumulative IPC: 4 (Simulation time: 03 hr 28 min 42 sec)
*** Reached end of trace: (2, "traces/canneal_big2.champsimtrace")
*** Reached end of trace: (7, "traces/canneal_big2.champsimtrace")
*** Reached end of trace: (4, "traces/canneal_big4.champsimtrace")
*** Reached end of trace: (3, "traces/canneal_big3.champsimtrace")
*** Reached end of trace: (0, "traces/canneal_big0.champsimtrace")
Heartbeat CPU 0 instructions: 140000037 cycles: 69855078 heartbeat IPC: 1.548 cumulative IPC: 1.549 (Simulation time: 03 hr 35 min 58 sec)
*** Reached end of trace: (2, "traces/canneal_big2.champsimtrace")
*** Reached end of trace: (7, "traces/canneal_big2.champsimtrace")
*** Reached end of trace: (4, "traces/canneal_big4.champsimtrace")
*** Reached end of trace: (3, "traces/canneal_big3.champsimtrace")
Heartbeat CPU 2 instructions: 280000001 cycles: 70005209 heartbeat IPC: 4 cumulative IPC: 4 (Simulation time: 03 hr 36 min 31 sec)
Heartbeat CPU 7 instructions: 280000001 cycles: 70005215 heartbeat IPC: 4 cumulative IPC: 4 (Simulation time: 03 hr 36 min 31 sec)
Heartbeat CPU 4 instructions: 280000001 cycles: 70005240 heartbeat IPC: 4 cumulative IPC: 4 (Simulation time: 03 hr 36 min 31 sec)
Heartbeat CPU 3 instructions: 280000001 cycles: 70005262 heartbeat IPC: 4 cumulative IPC: 4 (Simulation time: 03 hr 36 min 31 sec)
*** Reached end of trace: (5, "traces/canneal_big0.champsimtrace")
Heartbeat CPU 5 instructions: 140000039 cycles: 70247898 heartbeat IPC: 1.532 cumulative IPC: 1.537 (Simulation time: 03 hr 37 min 23 sec)
*** Reached end of trace: (2, "traces/canneal_big2.champsimtrace")
*** Reached end of trace: (7, "traces/canneal_big2.champsimtrace")
*** Reached end of trace: (4, "traces/canneal_big4.champsimtrace")
*** Reached end of trace: (3, "traces/canneal_big3.champsimtrace")
*** Reached end of trace: (2, "traces/canneal_big2.champsimtrace")
*** Reached end of trace: (7, "traces/canneal_big2.champsimtrace")
*** Reached end of trace: (4, "traces/canneal_big4.champsimtrace")
*** Reached end of trace: (3, "traces/canneal_big3.champsimtrace")
Heartbeat CPU 2 instructions: 290000001 cycles: 72505209 heartbeat IPC: 4 cumulative IPC: 4 (Simulation time: 03 hr 44 min 37 sec)
Heartbeat CPU 7 instructions: 290000001 cycles: 72505215 heartbeat IPC: 4 cumulative IPC: 4 (Simulation time: 03 hr 44 min 37 sec)
Heartbeat CPU 4 instructions: 290000001 cycles: 72505240 heartbeat IPC: 4 cumulative IPC: 4 (Simulation time: 03 hr 44 min 37 sec)
Heartbeat CPU 3 instructions: 290000001 cycles: 72505262 heartbeat IPC: 4 cumulative IPC: 4 (Simulation time: 03 hr 44 min 37 sec)
*** Reached end of trace: (0, "traces/canneal_big0.champsimtrace")
*** Reached end of trace: (5, "traces/canneal_big0.champsimtrace")
*** Reached end of trace: (2, "traces/canneal_big2.champsimtrace")
*** Reached end of trace: (7, "traces/canneal_big2.champsimtrace")
*** Reached end of trace: (4, "traces/canneal_big4.champsimtrace")
*** Reached end of trace: (3, "traces/canneal_big3.champsimtrace")
*** Reached end of trace: (2, "traces/canneal_big2.champsimtrace")
*** Reached end of trace: (7, "traces/canneal_big2.champsimtrace")
*** Reached end of trace: (4, "traces/canneal_big4.champsimtrace")
*** Reached end of trace: (3, "traces/canneal_big3.champsimtrace")
Heartbeat CPU 2 instructions: 300000001 cycles: 75005209 heartbeat IPC: 4 cumulative IPC: 4 (Simulation time: 03 hr 51 min 59 sec)
Heartbeat CPU 7 instructions: 300000001 cycles: 75005215 heartbeat IPC: 4 cumulative IPC: 4 (Simulation time: 03 hr 51 min 59 sec)
Heartbeat CPU 4 instructions: 300000001 cycles: 75005240 heartbeat IPC: 4 cumulative IPC: 4 (Simulation time: 03 hr 51 min 59 sec)
Heartbeat CPU 3 instructions: 300000001 cycles: 75005262 heartbeat IPC: 4 cumulative IPC: 4 (Simulation time: 03 hr 51 min 59 sec)
*** Reached end of trace: (2, "traces/canneal_big2.champsimtrace")
*** Reached end of trace: (7, "traces/canneal_big2.champsimtrace")
*** Reached end of trace: (4, "traces/canneal_big4.champsimtrace")
*** Reached end of trace: (3, "traces/canneal_big3.champsimtrace")
*** Reached end of trace: (0, "traces/canneal_big0.champsimtrace")
Heartbeat CPU 0 instructions: 150000040 cycles: 76353579 heartbeat IPC: 1.539 cumulative IPC: 1.547 (Simulation time: 03 hr 56 min 06 sec)
*** Reached end of trace: (5, "traces/canneal_big0.champsimtrace")
Heartbeat CPU 5 instructions: 150000042 cycles: 76748811 heartbeat IPC: 1.538 cumulative IPC: 1.537 (Simulation time: 03 hr 57 min 04 sec)
*** Reached end of trace: (2, "traces/canneal_big2.champsimtrace")
*** Reached end of trace: (7, "traces/canneal_big2.champsimtrace")
*** Reached end of trace: (4, "traces/canneal_big4.champsimtrace")
*** Reached end of trace: (3, "traces/canneal_big3.champsimtrace")
Heartbeat CPU 2 instructions: 310000001 cycles: 77505209 heartbeat IPC: 4 cumulative IPC: 4 (Simulation time: 03 hr 58 min 55 sec)
Heartbeat CPU 7 instructions: 310000001 cycles: 77505215 heartbeat IPC: 4 cumulative IPC: 4 (Simulation time: 03 hr 58 min 55 sec)
Heartbeat CPU 4 instructions: 310000001 cycles: 77505240 heartbeat IPC: 4 cumulative IPC: 4 (Simulation time: 03 hr 58 min 55 sec)
Heartbeat CPU 3 instructions: 310000001 cycles: 77505262 heartbeat IPC: 4 cumulative IPC: 4 (Simulation time: 03 hr 58 min 55 sec)
*** Reached end of trace: (2, "traces/canneal_big2.champsimtrace")
*** Reached end of trace: (7, "traces/canneal_big2.champsimtrace")
*** Reached end of trace: (4, "traces/canneal_big4.champsimtrace")
*** Reached end of trace: (3, "traces/canneal_big3.champsimtrace")
*** Reached end of trace: (0, "traces/canneal_big0.champsimtrace")
*** Reached end of trace: (5, "traces/canneal_big0.champsimtrace")
*** Reached end of trace: (2, "traces/canneal_big2.champsimtrace")
*** Reached end of trace: (7, "traces/canneal_big2.champsimtrace")
*** Reached end of trace: (4, "traces/canneal_big4.champsimtrace")
*** Reached end of trace: (3, "traces/canneal_big3.champsimtrace")
Heartbeat CPU 2 instructions: 320000001 cycles: 80005209 heartbeat IPC: 4 cumulative IPC: 4 (Simulation time: 04 hr 06 min 00 sec)
Heartbeat CPU 7 instructions: 320000001 cycles: 80005215 heartbeat IPC: 4 cumulative IPC: 4 (Simulation time: 04 hr 06 min 00 sec)
Heartbeat CPU 4 instructions: 320000001 cycles: 80005240 heartbeat IPC: 4 cumulative IPC: 4 (Simulation time: 04 hr 06 min 00 sec)
Heartbeat CPU 3 instructions: 320000001 cycles: 80005262 heartbeat IPC: 4 cumulative IPC: 4 (Simulation time: 04 hr 06 min 00 sec)
*** Reached end of trace: (2, "traces/canneal_big2.champsimtrace")
*** Reached end of trace: (7, "traces/canneal_big2.champsimtrace")
*** Reached end of trace: (4, "traces/canneal_big4.champsimtrace")
*** Reached end of trace: (3, "traces/canneal_big3.champsimtrace")
*** Reached end of trace: (2, "traces/canneal_big2.champsimtrace")
*** Reached end of trace: (7, "traces/canneal_big2.champsimtrace")
*** Reached end of trace: (4, "traces/canneal_big4.champsimtrace")
*** Reached end of trace: (3, "traces/canneal_big3.champsimtrace")
Heartbeat CPU 2 instructions: 330000001 cycles: 82505209 heartbeat IPC: 4 cumulative IPC: 4 (Simulation time: 04 hr 13 min 27 sec)
Heartbeat CPU 7 instructions: 330000001 cycles: 82505215 heartbeat IPC: 4 cumulative IPC: 4 (Simulation time: 04 hr 13 min 27 sec)
Heartbeat CPU 4 instructions: 330000001 cycles: 82505240 heartbeat IPC: 4 cumulative IPC: 4 (Simulation time: 04 hr 13 min 27 sec)
Heartbeat CPU 3 instructions: 330000001 cycles: 82505262 heartbeat IPC: 4 cumulative IPC: 4 (Simulation time: 04 hr 13 min 27 sec)
*** Reached end of trace: (0, "traces/canneal_big0.champsimtrace")
Heartbeat CPU 0 instructions: 160000043 cycles: 82780025 heartbeat IPC: 1.556 cumulative IPC: 1.548 (Simulation time: 04 hr 14 min 10 sec)
*** Reached end of trace: (5, "traces/canneal_big0.champsimtrace")
Heartbeat CPU 5 instructions: 160000043 cycles: 83242151 heartbeat IPC: 1.54 cumulative IPC: 1.537 (Simulation time: 04 hr 15 min 18 sec)
*** Reached end of trace: (2, "traces/canneal_big2.champsimtrace")
*** Reached end of trace: (7, "traces/canneal_big2.champsimtrace")
*** Reached end of trace: (4, "traces/canneal_big4.champsimtrace")
*** Reached end of trace: (3, "traces/canneal_big3.champsimtrace")
*** Reached end of trace: (2, "traces/canneal_big2.champsimtrace")
*** Reached end of trace: (7, "traces/canneal_big2.champsimtrace")
*** Reached end of trace: (4, "traces/canneal_big4.champsimtrace")
*** Reached end of trace: (3, "traces/canneal_big3.champsimtrace")
Heartbeat CPU 2 instructions: 340000001 cycles: 85005209 heartbeat IPC: 4 cumulative IPC: 4 (Simulation time: 04 hr 19 min 51 sec)
Heartbeat CPU 7 instructions: 340000001 cycles: 85005215 heartbeat IPC: 4 cumulative IPC: 4 (Simulation time: 04 hr 19 min 51 sec)
Heartbeat CPU 4 instructions: 340000001 cycles: 85005240 heartbeat IPC: 4 cumulative IPC: 4 (Simulation time: 04 hr 19 min 51 sec)
Heartbeat CPU 3 instructions: 340000001 cycles: 85005262 heartbeat IPC: 4 cumulative IPC: 4 (Simulation time: 04 hr 19 min 51 sec)
*** Reached end of trace: (0, "traces/canneal_big0.champsimtrace")
*** Reached end of trace: (2, "traces/canneal_big2.champsimtrace")
*** Reached end of trace: (7, "traces/canneal_big2.champsimtrace")
*** Reached end of trace: (4, "traces/canneal_big4.champsimtrace")
*** Reached end of trace: (3, "traces/canneal_big3.champsimtrace")
*** Reached end of trace: (5, "traces/canneal_big0.champsimtrace")
*** Reached end of trace: (2, "traces/canneal_big2.champsimtrace")
*** Reached end of trace: (7, "traces/canneal_big2.champsimtrace")
*** Reached end of trace: (4, "traces/canneal_big4.champsimtrace")
*** Reached end of trace: (3, "traces/canneal_big3.champsimtrace")
Heartbeat CPU 2 instructions: 350000001 cycles: 87505209 heartbeat IPC: 4 cumulative IPC: 4 (Simulation time: 04 hr 26 min 34 sec)
Heartbeat CPU 7 instructions: 350000001 cycles: 87505215 heartbeat IPC: 4 cumulative IPC: 4 (Simulation time: 04 hr 26 min 34 sec)
Heartbeat CPU 4 instructions: 350000001 cycles: 87505240 heartbeat IPC: 4 cumulative IPC: 4 (Simulation time: 04 hr 26 min 34 sec)
Heartbeat CPU 3 instructions: 350000001 cycles: 87505262 heartbeat IPC: 4 cumulative IPC: 4 (Simulation time: 04 hr 26 min 34 sec)
*** Reached end of trace: (2, "traces/canneal_big2.champsimtrace")
*** Reached end of trace: (7, "traces/canneal_big2.champsimtrace")
*** Reached end of trace: (4, "traces/canneal_big4.champsimtrace")
*** Reached end of trace: (3, "traces/canneal_big3.champsimtrace")
*** Reached end of trace: (0, "traces/canneal_big0.champsimtrace")
Heartbeat CPU 0 instructions: 170000043 cycles: 89258996 heartbeat IPC: 1.543 cumulative IPC: 1.548 (Simulation time: 04 hr 31 min 56 sec)
*** Reached end of trace: (5, "traces/canneal_big0.champsimtrace")
Heartbeat CPU 5 instructions: 170000043 cycles: 89703630 heartbeat IPC: 1.548 cumulative IPC: 1.538 (Simulation time: 04 hr 33 min 29 sec)
*** Reached end of trace: (2, "traces/canneal_big2.champsimtrace")
*** Reached end of trace: (7, "traces/canneal_big2.champsimtrace")
*** Reached end of trace: (4, "traces/canneal_big4.champsimtrace")
*** Reached end of trace: (3, "traces/canneal_big3.champsimtrace")
Heartbeat CPU 2 instructions: 360000001 cycles: 90005209 heartbeat IPC: 4 cumulative IPC: 4 (Simulation time: 04 hr 34 min 15 sec)
Heartbeat CPU 7 instructions: 360000001 cycles: 90005215 heartbeat IPC: 4 cumulative IPC: 4 (Simulation time: 04 hr 34 min 15 sec)
Heartbeat CPU 4 instructions: 360000001 cycles: 90005240 heartbeat IPC: 4 cumulative IPC: 4 (Simulation time: 04 hr 34 min 15 sec)
Heartbeat CPU 3 instructions: 360000001 cycles: 90005262 heartbeat IPC: 4 cumulative IPC: 4 (Simulation time: 04 hr 34 min 15 sec)
*** Reached end of trace: (2, "traces/canneal_big2.champsimtrace")
*** Reached end of trace: (7, "traces/canneal_big2.champsimtrace")
*** Reached end of trace: (4, "traces/canneal_big4.champsimtrace")
*** Reached end of trace: (3, "traces/canneal_big3.champsimtrace")
*** Reached end of trace: (1, "traces/canneal_big1.champsimtrace")
Heartbeat CPU 1 instructions: 60000010 cycles: 91925916 heartbeat IPC: 0.1631 cumulative IPC: 0.1586 (Simulation time: 04 hr 39 min 07 sec)
*** Reached end of trace: (0, "traces/canneal_big0.champsimtrace")
*** Reached end of trace: (2, "traces/canneal_big2.champsimtrace")
*** Reached end of trace: (7, "traces/canneal_big2.champsimtrace")
*** Reached end of trace: (4, "traces/canneal_big4.champsimtrace")
*** Reached end of trace: (3, "traces/canneal_big3.champsimtrace")
Heartbeat CPU 2 instructions: 370000001 cycles: 92505209 heartbeat IPC: 4 cumulative IPC: 4 (Simulation time: 04 hr 40 min 34 sec)
Heartbeat CPU 7 instructions: 370000001 cycles: 92505215 heartbeat IPC: 4 cumulative IPC: 4 (Simulation time: 04 hr 40 min 34 sec)
Heartbeat CPU 4 instructions: 370000001 cycles: 92505240 heartbeat IPC: 4 cumulative IPC: 4 (Simulation time: 04 hr 40 min 34 sec)
Heartbeat CPU 3 instructions: 370000001 cycles: 92505262 heartbeat IPC: 4 cumulative IPC: 4 (Simulation time: 04 hr 40 min 34 sec)
*** Reached end of trace: (5, "traces/canneal_big0.champsimtrace")
*** Reached end of trace: (2, "traces/canneal_big2.champsimtrace")
*** Reached end of trace: (7, "traces/canneal_big2.champsimtrace")
*** Reached end of trace: (4, "traces/canneal_big4.champsimtrace")
*** Reached end of trace: (3, "traces/canneal_big3.champsimtrace")
*** Reached end of trace: (6, "traces/canneal_big1.champsimtrace")
Heartbeat CPU 6 instructions: 60000010 cycles: 94580598 heartbeat IPC: 0.1569 cumulative IPC: 0.1569 (Simulation time: 04 hr 47 min 20 sec)
*** Reached end of trace: (2, "traces/canneal_big2.champsimtrace")
*** Reached end of trace: (7, "traces/canneal_big2.champsimtrace")
*** Reached end of trace: (4, "traces/canneal_big4.champsimtrace")
*** Reached end of trace: (3, "traces/canneal_big3.champsimtrace")
Heartbeat CPU 2 instructions: 380000001 cycles: 95005209 heartbeat IPC: 4 cumulative IPC: 4 (Simulation time: 04 hr 48 min 46 sec)
Heartbeat CPU 7 instructions: 380000001 cycles: 95005215 heartbeat IPC: 4 cumulative IPC: 4 (Simulation time: 04 hr 48 min 46 sec)
Heartbeat CPU 4 instructions: 380000001 cycles: 95005240 heartbeat IPC: 4 cumulative IPC: 4 (Simulation time: 04 hr 48 min 46 sec)
Heartbeat CPU 3 instructions: 380000001 cycles: 95005262 heartbeat IPC: 4 cumulative IPC: 4 (Simulation time: 04 hr 48 min 46 sec)
Simulation finished CPU 0 instructions: 100000000 cycles: 64639997 cumulative IPC: 1.547 (Simulation time: 04 hr 50 min 16 sec)
*** Reached end of trace: (0, "traces/canneal_big0.champsimtrace")
Heartbeat CPU 0 instructions: 180000046 cycles: 95741152 heartbeat IPC: 1.543 cumulative IPC: 1.547 (Simulation time: 04 hr 51 min 11 sec)
Simulation finished CPU 5 instructions: 100000000 cycles: 65119473 cumulative IPC: 1.536 (Simulation time: 04 hr 51 min 49 sec)
*** Reached end of trace: (5, "traces/canneal_big0.champsimtrace")
Heartbeat CPU 5 instructions: 180000044 cycles: 96219382 heartbeat IPC: 1.535 cumulative IPC: 1.538 (Simulation time: 04 hr 52 min 39 sec)
*** Reached end of trace: (2, "traces/canneal_big2.champsimtrace")
*** Reached end of trace: (7, "traces/canneal_big2.champsimtrace")
*** Reached end of trace: (4, "traces/canneal_big4.champsimtrace")
*** Reached end of trace: (3, "traces/canneal_big3.champsimtrace")
*** Reached end of trace: (2, "traces/canneal_big2.champsimtrace")
*** Reached end of trace: (7, "traces/canneal_big2.champsimtrace")
*** Reached end of trace: (4, "traces/canneal_big4.champsimtrace")
*** Reached end of trace: (3, "traces/canneal_big3.champsimtrace")
Heartbeat CPU 2 instructions: 390000001 cycles: 97505209 heartbeat IPC: 4 cumulative IPC: 4 (Simulation time: 04 hr 56 min 14 sec)
Heartbeat CPU 7 instructions: 390000001 cycles: 97505215 heartbeat IPC: 4 cumulative IPC: 4 (Simulation time: 04 hr 56 min 14 sec)
Heartbeat CPU 4 instructions: 390000001 cycles: 97505240 heartbeat IPC: 4 cumulative IPC: 4 (Simulation time: 04 hr 56 min 14 sec)
Heartbeat CPU 3 instructions: 390000001 cycles: 97505262 heartbeat IPC: 4 cumulative IPC: 4 (Simulation time: 04 hr 56 min 14 sec)
*** Reached end of trace: (2, "traces/canneal_big2.champsimtrace")
*** Reached end of trace: (7, "traces/canneal_big2.champsimtrace")
*** Reached end of trace: (4, "traces/canneal_big4.champsimtrace")
*** Reached end of trace: (3, "traces/canneal_big3.champsimtrace")
*** Reached end of trace: (0, "traces/canneal_big0.champsimtrace")
*** Reached end of trace: (5, "traces/canneal_big0.champsimtrace")
*** Reached end of trace: (2, "traces/canneal_big2.champsimtrace")
*** Reached end of trace: (7, "traces/canneal_big2.champsimtrace")
*** Reached end of trace: (4, "traces/canneal_big4.champsimtrace")
*** Reached end of trace: (3, "traces/canneal_big3.champsimtrace")
Heartbeat CPU 2 instructions: 400000001 cycles: 100005209 heartbeat IPC: 4 cumulative IPC: 4 (Simulation time: 05 hr 03 min 23 sec)
Heartbeat CPU 7 instructions: 400000001 cycles: 100005215 heartbeat IPC: 4 cumulative IPC: 4 (Simulation time: 05 hr 03 min 23 sec)
Heartbeat CPU 4 instructions: 400000001 cycles: 100005240 heartbeat IPC: 4 cumulative IPC: 4 (Simulation time: 05 hr 03 min 23 sec)
Heartbeat CPU 3 instructions: 400000001 cycles: 100005262 heartbeat IPC: 4 cumulative IPC: 4 (Simulation time: 05 hr 03 min 23 sec)
*** Reached end of trace: (2, "traces/canneal_big2.champsimtrace")
*** Reached end of trace: (7, "traces/canneal_big2.champsimtrace")
*** Reached end of trace: (4, "traces/canneal_big4.champsimtrace")
*** Reached end of trace: (3, "traces/canneal_big3.champsimtrace")
*** Reached end of trace: (0, "traces/canneal_big0.champsimtrace")
Heartbeat CPU 0 instructions: 190000049 cycles: 102223236 heartbeat IPC: 1.543 cumulative IPC: 1.547 (Simulation time: 05 hr 09 min 41 sec)
*** Reached end of trace: (2, "traces/canneal_big2.champsimtrace")
*** Reached end of trace: (7, "traces/canneal_big2.champsimtrace")
*** Reached end of trace: (4, "traces/canneal_big4.champsimtrace")
*** Reached end of trace: (3, "traces/canneal_big3.champsimtrace")
Heartbeat CPU 2 instructions: 410000001 cycles: 102505209 heartbeat IPC: 4 cumulative IPC: 4 (Simulation time: 05 hr 10 min 28 sec)
Heartbeat CPU 7 instructions: 410000001 cycles: 102505215 heartbeat IPC: 4 cumulative IPC: 4 (Simulation time: 05 hr 10 min 28 sec)
Heartbeat CPU 4 instructions: 410000001 cycles: 102505240 heartbeat IPC: 4 cumulative IPC: 4 (Simulation time: 05 hr 10 min 28 sec)
Heartbeat CPU 3 instructions: 410000001 cycles: 102505262 heartbeat IPC: 4 cumulative IPC: 4 (Simulation time: 05 hr 10 min 28 sec)
*** Reached end of trace: (5, "traces/canneal_big0.champsimtrace")
Heartbeat CPU 5 instructions: 190000047 cycles: 102707933 heartbeat IPC: 1.541 cumulative IPC: 1.538 (Simulation time: 05 hr 11 min 04 sec)
*** Reached end of trace: (2, "traces/canneal_big2.champsimtrace")
*** Reached end of trace: (7, "traces/canneal_big2.champsimtrace")
*** Reached end of trace: (4, "traces/canneal_big4.champsimtrace")
*** Reached end of trace: (3, "traces/canneal_big3.champsimtrace")
*** Reached end of trace: (2, "traces/canneal_big2.champsimtrace")
*** Reached end of trace: (7, "traces/canneal_big2.champsimtrace")
*** Reached end of trace: (4, "traces/canneal_big4.champsimtrace")
*** Reached end of trace: (3, "traces/canneal_big3.champsimtrace")
Heartbeat CPU 2 instructions: 420000001 cycles: 105005209 heartbeat IPC: 4 cumulative IPC: 4 (Simulation time: 05 hr 17 min 55 sec)
Heartbeat CPU 7 instructions: 420000001 cycles: 105005215 heartbeat IPC: 4 cumulative IPC: 4 (Simulation time: 05 hr 17 min 55 sec)
Heartbeat CPU 4 instructions: 420000001 cycles: 105005240 heartbeat IPC: 4 cumulative IPC: 4 (Simulation time: 05 hr 17 min 55 sec)
Heartbeat CPU 3 instructions: 420000001 cycles: 105005262 heartbeat IPC: 4 cumulative IPC: 4 (Simulation time: 05 hr 17 min 55 sec)
*** Reached end of trace: (0, "traces/canneal_big0.champsimtrace")
*** Reached end of trace: (5, "traces/canneal_big0.champsimtrace")
*** Reached end of trace: (2, "traces/canneal_big2.champsimtrace")
*** Reached end of trace: (7, "traces/canneal_big2.champsimtrace")
*** Reached end of trace: (4, "traces/canneal_big4.champsimtrace")
*** Reached end of trace: (3, "traces/canneal_big3.champsimtrace")
*** Reached end of trace: (2, "traces/canneal_big2.champsimtrace")
*** Reached end of trace: (7, "traces/canneal_big2.champsimtrace")
*** Reached end of trace: (4, "traces/canneal_big4.champsimtrace")
*** Reached end of trace: (3, "traces/canneal_big3.champsimtrace")
Heartbeat CPU 2 instructions: 430000001 cycles: 107505209 heartbeat IPC: 4 cumulative IPC: 4 (Simulation time: 05 hr 24 min 44 sec)
Heartbeat CPU 7 instructions: 430000001 cycles: 107505215 heartbeat IPC: 4 cumulative IPC: 4 (Simulation time: 05 hr 24 min 44 sec)
Heartbeat CPU 4 instructions: 430000001 cycles: 107505240 heartbeat IPC: 4 cumulative IPC: 4 (Simulation time: 05 hr 24 min 44 sec)
Heartbeat CPU 3 instructions: 430000001 cycles: 107505262 heartbeat IPC: 4 cumulative IPC: 4 (Simulation time: 05 hr 24 min 44 sec)
*** Reached end of trace: (0, "traces/canneal_big0.champsimtrace")
Heartbeat CPU 0 instructions: 200000052 cycles: 108671759 heartbeat IPC: 1.551 cumulative IPC: 1.547 (Simulation time: 05 hr 28 min 00 sec)
*** Reached end of trace: (2, "traces/canneal_big2.champsimtrace")
*** Reached end of trace: (7, "traces/canneal_big2.champsimtrace")
*** Reached end of trace: (4, "traces/canneal_big4.champsimtrace")
*** Reached end of trace: (3, "traces/canneal_big3.champsimtrace")
*** Reached end of trace: (5, "traces/canneal_big0.champsimtrace")
Heartbeat CPU 5 instructions: 200000047 cycles: 109171747 heartbeat IPC: 1.547 cumulative IPC: 1.539 (Simulation time: 05 hr 29 min 29 sec)
*** Reached end of trace: (2, "traces/canneal_big2.champsimtrace")
*** Reached end of trace: (7, "traces/canneal_big2.champsimtrace")
*** Reached end of trace: (4, "traces/canneal_big4.champsimtrace")
*** Reached end of trace: (3, "traces/canneal_big3.champsimtrace")
Heartbeat CPU 2 instructions: 440000001 cycles: 110005209 heartbeat IPC: 4 cumulative IPC: 4 (Simulation time: 05 hr 32 min 03 sec)
Heartbeat CPU 7 instructions: 440000001 cycles: 110005215 heartbeat IPC: 4 cumulative IPC: 4 (Simulation time: 05 hr 32 min 03 sec)
Heartbeat CPU 4 instructions: 440000001 cycles: 110005240 heartbeat IPC: 4 cumulative IPC: 4 (Simulation time: 05 hr 32 min 03 sec)
Heartbeat CPU 3 instructions: 440000001 cycles: 110005262 heartbeat IPC: 4 cumulative IPC: 4 (Simulation time: 05 hr 32 min 03 sec)
*** Reached end of trace: (2, "traces/canneal_big2.champsimtrace")
*** Reached end of trace: (7, "traces/canneal_big2.champsimtrace")
*** Reached end of trace: (4, "traces/canneal_big4.champsimtrace")
*** Reached end of trace: (3, "traces/canneal_big3.champsimtrace")
*** Reached end of trace: (0, "traces/canneal_big0.champsimtrace")
*** Reached end of trace: (5, "traces/canneal_big0.champsimtrace")
*** Reached end of trace: (2, "traces/canneal_big2.champsimtrace")
*** Reached end of trace: (7, "traces/canneal_big2.champsimtrace")
*** Reached end of trace: (4, "traces/canneal_big4.champsimtrace")
*** Reached end of trace: (3, "traces/canneal_big3.champsimtrace")
Heartbeat CPU 2 instructions: 450000001 cycles: 112505209 heartbeat IPC: 4 cumulative IPC: 4 (Simulation time: 05 hr 40 min 30 sec)
Heartbeat CPU 7 instructions: 450000001 cycles: 112505215 heartbeat IPC: 4 cumulative IPC: 4 (Simulation time: 05 hr 40 min 30 sec)
Heartbeat CPU 4 instructions: 450000001 cycles: 112505240 heartbeat IPC: 4 cumulative IPC: 4 (Simulation time: 05 hr 40 min 30 sec)
Heartbeat CPU 3 instructions: 450000001 cycles: 112505262 heartbeat IPC: 4 cumulative IPC: 4 (Simulation time: 05 hr 40 min 30 sec)
*** Reached end of trace: (2, "traces/canneal_big2.champsimtrace")
*** Reached end of trace: (7, "traces/canneal_big2.champsimtrace")
*** Reached end of trace: (4, "traces/canneal_big4.champsimtrace")
*** Reached end of trace: (3, "traces/canneal_big3.champsimtrace")
*** Reached end of trace: (2, "traces/canneal_big2.champsimtrace")
*** Reached end of trace: (7, "traces/canneal_big2.champsimtrace")
*** Reached end of trace: (4, "traces/canneal_big4.champsimtrace")
*** Reached end of trace: (3, "traces/canneal_big3.champsimtrace")
Heartbeat CPU 2 instructions: 460000001 cycles: 115005209 heartbeat IPC: 4 cumulative IPC: 4 (Simulation time: 05 hr 48 min 23 sec)
Heartbeat CPU 7 instructions: 460000001 cycles: 115005215 heartbeat IPC: 4 cumulative IPC: 4 (Simulation time: 05 hr 48 min 23 sec)
Heartbeat CPU 4 instructions: 460000001 cycles: 115005240 heartbeat IPC: 4 cumulative IPC: 4 (Simulation time: 05 hr 48 min 23 sec)
Heartbeat CPU 3 instructions: 460000001 cycles: 115005262 heartbeat IPC: 4 cumulative IPC: 4 (Simulation time: 05 hr 48 min 23 sec)
*** Reached end of trace: (0, "traces/canneal_big0.champsimtrace")
Heartbeat CPU 0 instructions: 210000053 cycles: 115124349 heartbeat IPC: 1.55 cumulative IPC: 1.547 (Simulation time: 05 hr 48 min 46 sec)
*** Reached end of trace: (5, "traces/canneal_big0.champsimtrace")
Heartbeat CPU 5 instructions: 210000048 cycles: 115629941 heartbeat IPC: 1.548 cumulative IPC: 1.54 (Simulation time: 05 hr 50 min 17 sec)
*** Reached end of trace: (2, "traces/canneal_big2.champsimtrace")
*** Reached end of trace: (7, "traces/canneal_big2.champsimtrace")
*** Reached end of trace: (4, "traces/canneal_big4.champsimtrace")
*** Reached end of trace: (3, "traces/canneal_big3.champsimtrace")
*** Reached end of trace: (2, "traces/canneal_big2.champsimtrace")
*** Reached end of trace: (7, "traces/canneal_big2.champsimtrace")
*** Reached end of trace: (4, "traces/canneal_big4.champsimtrace")
*** Reached end of trace: (3, "traces/canneal_big3.champsimtrace")
Heartbeat CPU 2 instructions: 470000001 cycles: 117505209 heartbeat IPC: 4 cumulative IPC: 4 (Simulation time: 05 hr 56 min 32 sec)
Heartbeat CPU 7 instructions: 470000001 cycles: 117505215 heartbeat IPC: 4 cumulative IPC: 4 (Simulation time: 05 hr 56 min 32 sec)
Heartbeat CPU 4 instructions: 470000001 cycles: 117505240 heartbeat IPC: 4 cumulative IPC: 4 (Simulation time: 05 hr 56 min 32 sec)
Heartbeat CPU 3 instructions: 470000001 cycles: 117505262 heartbeat IPC: 4 cumulative IPC: 4 (Simulation time: 05 hr 56 min 32 sec)
*** Reached end of trace: (0, "traces/canneal_big0.champsimtrace")
*** Reached end of trace: (2, "traces/canneal_big2.champsimtrace")
*** Reached end of trace: (7, "traces/canneal_big2.champsimtrace")
*** Reached end of trace: (4, "traces/canneal_big4.champsimtrace")
*** Reached end of trace: (3, "traces/canneal_big3.champsimtrace")
*** Reached end of trace: (5, "traces/canneal_big0.champsimtrace")
*** Reached end of trace: (2, "traces/canneal_big2.champsimtrace")
*** Reached end of trace: (7, "traces/canneal_big2.champsimtrace")
*** Reached end of trace: (4, "traces/canneal_big4.champsimtrace")
*** Reached end of trace: (3, "traces/canneal_big3.champsimtrace")
Heartbeat CPU 2 instructions: 480000001 cycles: 120005209 heartbeat IPC: 4 cumulative IPC: 4 (Simulation time: 06 hr 03 min 48 sec)
Heartbeat CPU 7 instructions: 480000001 cycles: 120005215 heartbeat IPC: 4 cumulative IPC: 4 (Simulation time: 06 hr 03 min 48 sec)
Heartbeat CPU 4 instructions: 480000001 cycles: 120005240 heartbeat IPC: 4 cumulative IPC: 4 (Simulation time: 06 hr 03 min 48 sec)
Heartbeat CPU 3 instructions: 480000001 cycles: 120005262 heartbeat IPC: 4 cumulative IPC: 4 (Simulation time: 06 hr 03 min 48 sec)
*** Reached end of trace: (2, "traces/canneal_big2.champsimtrace")
*** Reached end of trace: (7, "traces/canneal_big2.champsimtrace")
*** Reached end of trace: (4, "traces/canneal_big4.champsimtrace")
*** Reached end of trace: (3, "traces/canneal_big3.champsimtrace")
*** Reached end of trace: (0, "traces/canneal_big0.champsimtrace")
Heartbeat CPU 0 instructions: 220000056 cycles: 121588067 heartbeat IPC: 1.547 cumulative IPC: 1.547 (Simulation time: 06 hr 08 min 31 sec)
*** Reached end of trace: (5, "traces/canneal_big0.champsimtrace")
Heartbeat CPU 5 instructions: 220000048 cycles: 122102883 heartbeat IPC: 1.545 cumulative IPC: 1.54 (Simulation time: 06 hr 10 min 00 sec)
*** Reached end of trace: (2, "traces/canneal_big2.champsimtrace")
*** Reached end of trace: (7, "traces/canneal_big2.champsimtrace")
*** Reached end of trace: (4, "traces/canneal_big4.champsimtrace")
*** Reached end of trace: (3, "traces/canneal_big3.champsimtrace")
Heartbeat CPU 2 instructions: 490000001 cycles: 122505209 heartbeat IPC: 4 cumulative IPC: 4 (Simulation time: 06 hr 11 min 11 sec)
Heartbeat CPU 7 instructions: 490000001 cycles: 122505215 heartbeat IPC: 4 cumulative IPC: 4 (Simulation time: 06 hr 11 min 11 sec)
Heartbeat CPU 4 instructions: 490000001 cycles: 122505240 heartbeat IPC: 4 cumulative IPC: 4 (Simulation time: 06 hr 11 min 11 sec)
Heartbeat CPU 3 instructions: 490000001 cycles: 122505262 heartbeat IPC: 4 cumulative IPC: 4 (Simulation time: 06 hr 11 min 11 sec)
*** Reached end of trace: (1, "traces/canneal_big1.champsimtrace")
*** Reached end of trace: (2, "traces/canneal_big2.champsimtrace")
*** Reached end of trace: (7, "traces/canneal_big2.champsimtrace")
*** Reached end of trace: (4, "traces/canneal_big4.champsimtrace")
*** Reached end of trace: (3, "traces/canneal_big3.champsimtrace")
*** Reached end of trace: (0, "traces/canneal_big0.champsimtrace")
*** Reached end of trace: (2, "traces/canneal_big2.champsimtrace")
*** Reached end of trace: (7, "traces/canneal_big2.champsimtrace")
*** Reached end of trace: (4, "traces/canneal_big4.champsimtrace")
*** Reached end of trace: (3, "traces/canneal_big3.champsimtrace")
Heartbeat CPU 2 instructions: 500000001 cycles: 125005209 heartbeat IPC: 4 cumulative IPC: 4 (Simulation time: 06 hr 18 min 46 sec)
Heartbeat CPU 7 instructions: 500000001 cycles: 125005215 heartbeat IPC: 4 cumulative IPC: 4 (Simulation time: 06 hr 18 min 46 sec)
Heartbeat CPU 4 instructions: 500000001 cycles: 125005240 heartbeat IPC: 4 cumulative IPC: 4 (Simulation time: 06 hr 18 min 46 sec)
Heartbeat CPU 3 instructions: 500000001 cycles: 125005262 heartbeat IPC: 4 cumulative IPC: 4 (Simulation time: 06 hr 18 min 46 sec)
*** Reached end of trace: (5, "traces/canneal_big0.champsimtrace")
*** Reached end of trace: (2, "traces/canneal_big2.champsimtrace")
*** Reached end of trace: (7, "traces/canneal_big2.champsimtrace")
*** Reached end of trace: (4, "traces/canneal_big4.champsimtrace")
*** Reached end of trace: (3, "traces/canneal_big3.champsimtrace")
*** Reached end of trace: (6, "traces/canneal_big1.champsimtrace")
*** Reached end of trace: (2, "traces/canneal_big2.champsimtrace")
*** Reached end of trace: (7, "traces/canneal_big2.champsimtrace")
*** Reached end of trace: (4, "traces/canneal_big4.champsimtrace")
*** Reached end of trace: (3, "traces/canneal_big3.champsimtrace")
Heartbeat CPU 2 instructions: 510000001 cycles: 127505209 heartbeat IPC: 4 cumulative IPC: 4 (Simulation time: 06 hr 27 min 14 sec)
Heartbeat CPU 7 instructions: 510000001 cycles: 127505215 heartbeat IPC: 4 cumulative IPC: 4 (Simulation time: 06 hr 27 min 14 sec)
Heartbeat CPU 4 instructions: 510000001 cycles: 127505240 heartbeat IPC: 4 cumulative IPC: 4 (Simulation time: 06 hr 27 min 14 sec)
Heartbeat CPU 3 instructions: 510000001 cycles: 127505262 heartbeat IPC: 4 cumulative IPC: 4 (Simulation time: 06 hr 27 min 14 sec)
*** Reached end of trace: (0, "traces/canneal_big0.champsimtrace")
Heartbeat CPU 0 instructions: 230000059 cycles: 128095281 heartbeat IPC: 1.537 cumulative IPC: 1.547 (Simulation time: 06 hr 29 min 15 sec)
*** Reached end of trace: (5, "traces/canneal_big0.champsimtrace")
Heartbeat CPU 5 instructions: 230000051 cycles: 128605109 heartbeat IPC: 1.538 cumulative IPC: 1.54 (Simulation time: 06 hr 30 min 53 sec)
*** Reached end of trace: (2, "traces/canneal_big2.champsimtrace")
*** Reached end of trace: (7, "traces/canneal_big2.champsimtrace")
*** Reached end of trace: (4, "traces/canneal_big4.champsimtrace")
*** Reached end of trace: (3, "traces/canneal_big3.champsimtrace")
*** Reached end of trace: (2, "traces/canneal_big2.champsimtrace")
*** Reached end of trace: (7, "traces/canneal_big2.champsimtrace")
*** Reached end of trace: (4, "traces/canneal_big4.champsimtrace")
*** Reached end of trace: (3, "traces/canneal_big3.champsimtrace")
Heartbeat CPU 2 instructions: 520000001 cycles: 130005209 heartbeat IPC: 4 cumulative IPC: 4 (Simulation time: 06 hr 35 min 00 sec)
Heartbeat CPU 7 instructions: 520000001 cycles: 130005215 heartbeat IPC: 4 cumulative IPC: 4 (Simulation time: 06 hr 35 min 00 sec)
Heartbeat CPU 4 instructions: 520000001 cycles: 130005240 heartbeat IPC: 4 cumulative IPC: 4 (Simulation time: 06 hr 35 min 00 sec)
Heartbeat CPU 3 instructions: 520000001 cycles: 130005262 heartbeat IPC: 4 cumulative IPC: 4 (Simulation time: 06 hr 35 min 00 sec)
*** Reached end of trace: (2, "traces/canneal_big2.champsimtrace")
*** Reached end of trace: (7, "traces/canneal_big2.champsimtrace")
*** Reached end of trace: (4, "traces/canneal_big4.champsimtrace")
*** Reached end of trace: (3, "traces/canneal_big3.champsimtrace")
*** Reached end of trace: (0, "traces/canneal_big0.champsimtrace")
*** Reached end of trace: (5, "traces/canneal_big0.champsimtrace")
*** Reached end of trace: (2, "traces/canneal_big2.champsimtrace")
*** Reached end of trace: (7, "traces/canneal_big2.champsimtrace")
*** Reached end of trace: (4, "traces/canneal_big4.champsimtrace")
*** Reached end of trace: (3, "traces/canneal_big3.champsimtrace")
Heartbeat CPU 2 instructions: 530000001 cycles: 132505209 heartbeat IPC: 4 cumulative IPC: 4 (Simulation time: 06 hr 41 min 20 sec)
Heartbeat CPU 7 instructions: 530000001 cycles: 132505215 heartbeat IPC: 4 cumulative IPC: 4 (Simulation time: 06 hr 41 min 20 sec)
Heartbeat CPU 4 instructions: 530000001 cycles: 132505240 heartbeat IPC: 4 cumulative IPC: 4 (Simulation time: 06 hr 41 min 20 sec)
Heartbeat CPU 3 instructions: 530000001 cycles: 132505262 heartbeat IPC: 4 cumulative IPC: 4 (Simulation time: 06 hr 41 min 20 sec)
*** Reached end of trace: (2, "traces/canneal_big2.champsimtrace")
*** Reached end of trace: (7, "traces/canneal_big2.champsimtrace")
*** Reached end of trace: (4, "traces/canneal_big4.champsimtrace")
*** Reached end of trace: (3, "traces/canneal_big3.champsimtrace")
*** Reached end of trace: (0, "traces/canneal_big0.champsimtrace")
Heartbeat CPU 0 instructions: 240000059 cycles: 134573697 heartbeat IPC: 1.544 cumulative IPC: 1.546 (Simulation time: 06 hr 46 min 46 sec)
*** Reached end of trace: (2, "traces/canneal_big2.champsimtrace")
*** Reached end of trace: (7, "traces/canneal_big2.champsimtrace")
*** Reached end of trace: (4, "traces/canneal_big4.champsimtrace")
*** Reached end of trace: (3, "traces/canneal_big3.champsimtrace")
Heartbeat CPU 2 instructions: 540000001 cycles: 135005209 heartbeat IPC: 4 cumulative IPC: 4 (Simulation time: 06 hr 48 min 08 sec)
Heartbeat CPU 7 instructions: 540000001 cycles: 135005215 heartbeat IPC: 4 cumulative IPC: 4 (Simulation time: 06 hr 48 min 08 sec)
Heartbeat CPU 4 instructions: 540000001 cycles: 135005240 heartbeat IPC: 4 cumulative IPC: 4 (Simulation time: 06 hr 48 min 08 sec)
Heartbeat CPU 3 instructions: 540000001 cycles: 135005262 heartbeat IPC: 4 cumulative IPC: 4 (Simulation time: 06 hr 48 min 08 sec)
*** Reached end of trace: (5, "traces/canneal_big0.champsimtrace")
Heartbeat CPU 5 instructions: 240000054 cycles: 135073785 heartbeat IPC: 1.546 cumulative IPC: 1.54 (Simulation time: 06 hr 48 min 19 sec)
*** Reached end of trace: (2, "traces/canneal_big2.champsimtrace")
*** Reached end of trace: (7, "traces/canneal_big2.champsimtrace")
*** Reached end of trace: (4, "traces/canneal_big4.champsimtrace")
*** Reached end of trace: (3, "traces/canneal_big3.champsimtrace")
*** Reached end of trace: (2, "traces/canneal_big2.champsimtrace")
*** Reached end of trace: (7, "traces/canneal_big2.champsimtrace")
*** Reached end of trace: (4, "traces/canneal_big4.champsimtrace")
*** Reached end of trace: (3, "traces/canneal_big3.champsimtrace")
Heartbeat CPU 2 instructions: 550000001 cycles: 137505209 heartbeat IPC: 4 cumulative IPC: 4 (Simulation time: 06 hr 55 min 25 sec)
Heartbeat CPU 7 instructions: 550000001 cycles: 137505215 heartbeat IPC: 4 cumulative IPC: 4 (Simulation time: 06 hr 55 min 25 sec)
Heartbeat CPU 4 instructions: 550000001 cycles: 137505240 heartbeat IPC: 4 cumulative IPC: 4 (Simulation time: 06 hr 55 min 25 sec)
Heartbeat CPU 3 instructions: 550000001 cycles: 137505262 heartbeat IPC: 4 cumulative IPC: 4 (Simulation time: 06 hr 55 min 25 sec)
*** Reached end of trace: (0, "traces/canneal_big0.champsimtrace")
*** Reached end of trace: (5, "traces/canneal_big0.champsimtrace")
*** Reached end of trace: (2, "traces/canneal_big2.champsimtrace")
*** Reached end of trace: (7, "traces/canneal_big2.champsimtrace")
*** Reached end of trace: (4, "traces/canneal_big4.champsimtrace")
*** Reached end of trace: (3, "traces/canneal_big3.champsimtrace")
*** Reached end of trace: (2, "traces/canneal_big2.champsimtrace")
*** Reached end of trace: (7, "traces/canneal_big2.champsimtrace")
*** Reached end of trace: (4, "traces/canneal_big4.champsimtrace")
*** Reached end of trace: (3, "traces/canneal_big3.champsimtrace")
Heartbeat CPU 2 instructions: 560000001 cycles: 140005209 heartbeat IPC: 4 cumulative IPC: 4 (Simulation time: 07 hr 02 min 04 sec)
Heartbeat CPU 7 instructions: 560000001 cycles: 140005215 heartbeat IPC: 4 cumulative IPC: 4 (Simulation time: 07 hr 02 min 04 sec)
Heartbeat CPU 4 instructions: 560000001 cycles: 140005240 heartbeat IPC: 4 cumulative IPC: 4 (Simulation time: 07 hr 02 min 04 sec)
Heartbeat CPU 3 instructions: 560000001 cycles: 140005262 heartbeat IPC: 4 cumulative IPC: 4 (Simulation time: 07 hr 02 min 04 sec)
*** Reached end of trace: (0, "traces/canneal_big0.champsimtrace")
Heartbeat CPU 0 instructions: 250000060 cycles: 141054527 heartbeat IPC: 1.543 cumulative IPC: 1.546 (Simulation time: 07 hr 04 min 49 sec)
*** Reached end of trace: (2, "traces/canneal_big2.champsimtrace")
*** Reached end of trace: (7, "traces/canneal_big2.champsimtrace")
*** Reached end of trace: (4, "traces/canneal_big4.champsimtrace")
*** Reached end of trace: (3, "traces/canneal_big3.champsimtrace")
*** Reached end of trace: (5, "traces/canneal_big0.champsimtrace")
Heartbeat CPU 5 instructions: 250000055 cycles: 141537442 heartbeat IPC: 1.547 cumulative IPC: 1.541 (Simulation time: 07 hr 06 min 11 sec)
*** Reached end of trace: (2, "traces/canneal_big2.champsimtrace")
[...]
cpu5->cpu5_L1D RFO          ACCESS:          0 HIT:          0 MISS:          0 MSHR_MERGE:          0
cpu5->cpu5_L1D PREFETCH     ACCESS:          0 HIT:          0 MISS:          0 MSHR_MERGE:          0
cpu5->cpu5_L1D WRITE        ACCESS:  170032488 HIT:  134949305 MISS:   35083183 MSHR_MERGE:   30127560
cpu5->cpu5_L1D TRANSLATION  ACCESS:          0 HIT:          0 MISS:          0 MSHR_MERGE:          0
cpu5->cpu5_L1D PREFETCH REQUESTED:          0 ISSUED:          0 USEFUL:          0 USELESS:          0
cpu5->cpu5_L1D AVERAGE MISS LATENCY: 464.5 cycles
cpu5_L1D COHERENCE INVALIDATIONS:          0
cpu5->cpu5_ITLB TOTAL        ACCESS:  128596498 HIT:  128542914 MISS:      53584 MSHR_MERGE:      19726
cpu5->cpu5_ITLB LOAD         ACCESS:  128596498 HIT:  128542914 MISS:      53584 MSHR_MERGE:      19726
cpu5->cpu5_ITLB RFO          ACCESS:          0 HIT:          0 MISS:          0 MSHR_MERGE:          0
cpu5->cpu5_ITLB PREFETCH     ACCESS:          0 HIT:          0 MISS:          0 MSHR_MERGE:          0
cpu5->cpu5_ITLB WRITE        ACCESS:          0 HIT:          0 MISS:          0 MSHR_MERGE:          0
cpu5->cpu5_ITLB TRANSLATION  ACCESS:          0 HIT:          0 MISS:          0 MSHR_MERGE:          0
cpu5->cpu5_ITLB PREFETCH REQUESTED:          0 ISSUED:          0 USEFUL:          0 USELESS:          0
cpu5->cpu5_ITLB AVERAGE MISS LATENCY: 4.009 cycles
cpu5_ITLB COHERENCE INVALIDATIONS:          0
cpu5->cpu5_DTLB TOTAL        ACCESS:  155127568 HIT:  154690583 MISS:     436985 MSHR_MERGE:      99488
cpu5->cpu5_DTLB LOAD         ACCESS:  155127568 HIT:  154690583 MISS:     436985 MSHR_MERGE:      99488
cpu5->cpu5_DTLB RFO          ACCESS:          0 HIT:          0 MISS:          0 MSHR_MERGE:          0
cpu5->cpu5_DTLB PREFETCH     ACCESS:          0 HIT:          0 MISS:          0 MSHR_MERGE:          0
cpu5->cpu5_DTLB WRITE        ACCESS:          0 HIT:          0 MISS:          0 MSHR_MERGE:          0
cpu5->cpu5_DTLB TRANSLATION  ACCESS:          0 HIT:          0 MISS:          0 MSHR_MERGE:          0
cpu5->cpu5_DTLB PREFETCH REQUESTED:          0 ISSUED:          0 USEFUL:          0 USELESS:          0
cpu5->cpu5_DTLB AVERAGE MISS LATENCY: 4.035 cycles
cpu5_DTLB COHERENCE INVALIDATIONS:          0
cpu4_STLB COHERENCE INVALIDATIONS:          0
cpu4_L2C COHERENCE INVALIDATIONS:          0
cpu4->cpu4_L1I TOTAL        ACCESS:  343693021 HIT:  343693021 MISS:          0 MSHR_MERGE:          0
cpu4->cpu4_L1I LOAD         ACCESS:  343693021 HIT:  343693021 MISS:          0 MSHR_MERGE:          0
cpu4->cpu4_L1I RFO          ACCESS:          0 HIT:          0 MISS:          0 MSHR_MERGE:          0
cpu4->cpu4_L1I PREFETCH     ACCESS:          0 HIT:          0 MISS:          0 MSHR_MERGE:          0
cpu4->cpu4_L1I WRITE        ACCESS:          0 HIT:          0 MISS:          0 MSHR_MERGE:          0
cpu4->cpu4_L1I TRANSLATION  ACCESS:          0 HIT:          0 MISS:          0 MSHR_MERGE:          0
cpu4->cpu4_L1I PREFETCH REQUESTED:          0 ISSUED:          0 USEFUL:          0 USELESS:          0
cpu4->cpu4_L1I AVERAGE MISS LATENCY: - cycles
cpu4_L1I COHERENCE INVALIDATIONS:          0
cpu4_L1D COHERENCE INVALIDATIONS:          0
cpu4->cpu4_ITLB TOTAL        ACCESS:  285829133 HIT:  285829133 MISS:          0 MSHR_MERGE:          0
cpu4->cpu4_ITLB LOAD         ACCESS:  285829133 HIT:  285829133 MISS:          0 MSHR_MERGE:          0
cpu4->cpu4_ITLB RFO          ACCESS:          0 HIT:          0 MISS:          0 MSHR_MERGE:          0
cpu4->cpu4_ITLB PREFETCH     ACCESS:          0 HIT:          0 MISS:          0 MSHR_MERGE:          0
cpu4->cpu4_ITLB WRITE        ACCESS:          0 HIT:          0 MISS:          0 MSHR_MERGE:          0
cpu4->cpu4_ITLB TRANSLATION  ACCESS:          0 HIT:          0 MISS:          0 MSHR_MERGE:          0
cpu4->cpu4_ITLB PREFETCH REQUESTED:          0 ISSUED:          0 USEFUL:          0 USELESS:          0
cpu4->cpu4_ITLB AVERAGE MISS LATENCY: - cycles
cpu4_ITLB COHERENCE INVALIDATIONS:          0
cpu4_DTLB COHERENCE INVALIDATIONS:          0
cpu3_STLB COHERENCE INVALIDATIONS:          0
cpu3_L2C COHERENCE INVALIDATIONS:          0
cpu3->cpu3_L1I TOTAL        ACCESS:  367714275 HIT:  367714275 MISS:          0 MSHR_MERGE:          0
cpu3->cpu3_L1I LOAD         ACCESS:  367714275 HIT:  367714275 MISS:          0 MSHR_MERGE:          0
cpu3->cpu3_L1I RFO          ACCESS:          0 HIT:          0 MISS:          0 MSHR_MERGE:          0
cpu3->cpu3_L1I PREFETCH     ACCESS:          0 HIT:          0 MISS:          0 MSHR_MERGE:          0
cpu3->cpu3_L1I WRITE        ACCESS:          0 HIT:          0 MISS:          0 MSHR_MERGE:          0
cpu3->cpu3_L1I TRANSLATION  ACCESS:          0 HIT:          0 MISS:          0 MSHR_MERGE:          0
cpu3->cpu3_L1I PREFETCH REQUESTED:          0 ISSUED:          0 USEFUL:          0 USELESS:          0
cpu3->cpu3_L1I AVERAGE MISS LATENCY: - cycles
cpu3_L1I COHERENCE INVALIDATIONS:          0
cpu3_L1D COHERENCE INVALIDATIONS:          0
cpu3->cpu3_ITLB TOTAL        ACCESS:  306905517 HIT:  306905517 MISS:          0 MSHR_MERGE:          0
cpu3->cpu3_ITLB LOAD         ACCESS:  306905517 HIT:  306905517 MISS:          0 MSHR_MERGE:          0
cpu3->cpu3_ITLB RFO          ACCESS:          0 HIT:          0 MISS:          0 MSHR_MERGE:          0
cpu3->cpu3_ITLB PREFETCH     ACCESS:          0 HIT:          0 MISS:          0 MSHR_MERGE:          0
cpu3->cpu3_ITLB WRITE        ACCESS:          0 HIT:          0 MISS:          0 MSHR_MERGE:          0
cpu3->cpu3_ITLB TRANSLATION  ACCESS:          0 HIT:          0 MISS:          0 MSHR_MERGE:          0
cpu3->cpu3_ITLB PREFETCH REQUESTED:          0 ISSUED:          0 USEFUL:          0 USELESS:          0
cpu3->cpu3_ITLB AVERAGE MISS LATENCY: - cycles
cpu3_ITLB COHERENCE INVALIDATIONS:          0
cpu3_DTLB COHERENCE INVALIDATIONS:          0
cpu2_STLB COHERENCE INVALIDATIONS:          0
cpu2_L2C COHERENCE INVALIDATIONS:          0
cpu2->cpu2_L1I TOTAL        ACCESS:  338543458 HIT:  338543458 MISS:          0 MSHR_MERGE:          0
cpu2->cpu2_L1I LOAD         ACCESS:  338543458 HIT:  338543458 MISS:          0 MSHR_MERGE:          0
cpu2->cpu2_L1I RFO          ACCESS:          0 HIT:          0 MISS:          0 MSHR_MERGE:          0
cpu2->cpu2_L1I PREFETCH     ACCESS:          0 HIT:          0 MISS:          0 MSHR_MERGE:          0
cpu2->cpu2_L1I WRITE        ACCESS:          0 HIT:          0 MISS:          0 MSHR_MERGE:          0
cpu2->cpu2_L1I TRANSLATION  ACCESS:          0 HIT:          0 MISS:          0 MSHR_MERGE:          0
cpu2->cpu2_L1I PREFETCH REQUESTED:          0 ISSUED:          0 USEFUL:          0 USELESS:          0
cpu2->cpu2_L1I AVERAGE MISS LATENCY: - cycles
cpu2_L1I COHERENCE INVALIDATIONS:          0
cpu2_L1D COHERENCE INVALIDATIONS:          0
cpu2->cpu2_ITLB TOTAL        ACCESS:  294385510 HIT:  294385510 MISS:          0 MSHR_MERGE:          0
cpu2->cpu2_ITLB LOAD         ACCESS:  294385510 HIT:  294385510 MISS:          0 MSHR_MERGE:          0
cpu2->cpu2_ITLB RFO          ACCESS:          0 HIT:          0 MISS:          0 MSHR_MERGE:          0
cpu2->cpu2_ITLB PREFETCH     ACCESS:          0 HIT:          0 MISS:          0 MSHR_MERGE:          0
cpu2->cpu2_ITLB WRITE        ACCESS:          0 HIT:          0 MISS:          0 MSHR_MERGE:          0
cpu2->cpu2_ITLB TRANSLATION  ACCESS:          0 HIT:          0 MISS:          0 MSHR_MERGE:          0
cpu2->cpu2_ITLB PREFETCH REQUESTED:          0 ISSUED:          0 USEFUL:          0 USELESS:          0
cpu2->cpu2_ITLB AVERAGE MISS LATENCY: - cycles
cpu2_ITLB COHERENCE INVALIDATIONS:          0
cpu2_DTLB COHERENCE INVALIDATIONS:          0
cpu1->cpu1_STLB TOTAL        ACCESS:    2229724 HIT:    2032613 MISS:     197111 MSHR_MERGE:          0
cpu1->cpu1_STLB LOAD         ACCESS:    2229724 HIT:    2032613 MISS:     197111 MSHR_MERGE:          0
cpu1->cpu1_STLB RFO          ACCESS:          0 HIT:          0 MISS:          0 MSHR_MERGE:          0
cpu1->cpu1_STLB PREFETCH     ACCESS:          0 HIT:          0 MISS:          0 MSHR_MERGE:          0
cpu1->cpu1_STLB WRITE        ACCESS:          0 HIT:          0 MISS:          0 MSHR_MERGE:          0
cpu1->cpu1_STLB TRANSLATION  ACCESS:          0 HIT:          0 MISS:          0 MSHR_MERGE:          0
cpu1->cpu1_STLB PREFETCH REQUESTED:          0 ISSUED:          0 USEFUL:          0 USELESS:          0
cpu1->cpu1_STLB AVERAGE MISS LATENCY: 983.7 cycles
cpu1_STLB COHERENCE INVALIDATIONS:          0
cpu1->cpu1_L2C TOTAL        ACCESS:    2362585 HIT:     411082 MISS:    1951503 MSHR_MERGE:          0
cpu1->cpu1_L2C LOAD         ACCESS:    1972003 HIT:     409958 MISS:    1562045 MSHR_MERGE:          0
cpu1->cpu1_L2C RFO          ACCESS:          0 HIT:          0 MISS:          0 MSHR_MERGE:          0
cpu1->cpu1_L2C PREFETCH     ACCESS:          0 HIT:          0 MISS:          0 MSHR_MERGE:          0
cpu1->cpu1_L2C WRITE        ACCESS:          0 HIT:          0 MISS:          0 MSHR_MERGE:          0
cpu1->cpu1_L2C TRANSLATION  ACCESS:     390582 HIT:       1124 MISS:     389458 MSHR_MERGE:          0
cpu1->cpu1_L2C PREFETCH REQUESTED:          0 ISSUED:          0 USEFUL:          0 USELESS:          0
cpu1->cpu1_L2C AVERAGE MISS LATENCY: 502.4 cycles
cpu1_L2C COHERENCE INVALIDATIONS:          0
cpu1->cpu1_L1I TOTAL        ACCESS:   34131135 HIT:   31966063 MISS:    2165072 MSHR_MERGE:     193069
cpu1->cpu1_L1I LOAD         ACCESS:   34131135 HIT:   31966063 MISS:    2165072 MSHR_MERGE:     193069
cpu1->cpu1_L1I RFO          ACCESS:          0 HIT:          0 MISS:          0 MSHR_MERGE:          0
cpu1->cpu1_L1I PREFETCH     ACCESS:          0 HIT:          0 MISS:          0 MSHR_MERGE:          0
cpu1->cpu1_L1I WRITE        ACCESS:          0 HIT:          0 MISS:          0 MSHR_MERGE:          0
cpu1->cpu1_L1I TRANSLATION  ACCESS:          0 HIT:          0 MISS:          0 MSHR_MERGE:          0
cpu1->cpu1_L1I PREFETCH REQUESTED:          0 ISSUED:          0 USEFUL:          0 USELESS:          0
cpu1->cpu1_L1I AVERAGE MISS LATENCY: 409.4 cycles
cpu1_L1I COHERENCE INVALIDATIONS:          0
cpu1->cpu1_L1D TOTAL        ACCESS:     394361 HIT:       3779 MISS:     390582 MSHR_MERGE:          0
cpu1->cpu1_L1D LOAD         ACCESS:          0 HIT:          0 MISS:          0 MSHR_MERGE:          0
cpu1->cpu1_L1D RFO          ACCESS:          0 HIT:          0 MISS:          0 MSHR_MERGE:          0
cpu1->cpu1_L1D PREFETCH     ACCESS:          0 HIT:          0 MISS:          0 MSHR_MERGE:          0
cpu1->cpu1_L1D WRITE        ACCESS:          0 HIT:          0 MISS:          0 MSHR_MERGE:          0
cpu1->cpu1_L1D TRANSLATION  ACCESS:     394361 HIT:       3779 MISS:     390582 MSHR_MERGE:          0
cpu1->cpu1_L1D PREFETCH REQUESTED:          0 ISSUED:          0 USEFUL:          0 USELESS:          0
cpu1->cpu1_L1D AVERAGE MISS LATENCY: 490.4 cycles
cpu1_L1D COHERENCE INVALIDATIONS:          0
cpu1->cpu1_ITLB TOTAL        ACCESS:   33596397 HIT:   31315410 MISS:    2280987 MSHR_MERGE:      51263
cpu1->cpu1_ITLB LOAD         ACCESS:   33596397 HIT:   31315410 MISS:    2280987 MSHR_MERGE:      51263
cpu1->cpu1_ITLB RFO          ACCESS:          0 HIT:          0 MISS:          0 MSHR_MERGE:          0
cpu1->cpu1_ITLB PREFETCH     ACCESS:          0 HIT:          0 MISS:          0 MSHR_MERGE:          0
cpu1->cpu1_ITLB WRITE        ACCESS:          0 HIT:          0 MISS:          0 MSHR_MERGE:          0
cpu1->cpu1_ITLB TRANSLATION  ACCESS:          0 HIT:          0 MISS:          0 MSHR_MERGE:          0
cpu1->cpu1_ITLB PREFETCH REQUESTED:          0 ISSUED:          0 USEFUL:          0 USELESS:          0
cpu1->cpu1_ITLB AVERAGE MISS LATENCY: 91.05 cycles
cpu1_ITLB COHERENCE INVALIDATIONS:          0
cpu1_DTLB COHERENCE INVALIDATIONS:          0
cpu0->cpu0_STLB TOTAL        ACCESS:     371384 HIT:     371384 MISS:          0 MSHR_MERGE:          0
cpu0->cpu0_STLB LOAD         ACCESS:     371384 HIT:     371384 MISS:          0 MSHR_MERGE:          0
cpu0->cpu0_STLB RFO          ACCESS:          0 HIT:          0 MISS:          0 MSHR_MERGE:          0
cpu0->cpu0_STLB PREFETCH     ACCESS:          0 HIT:          0 MISS:          0 MSHR_MERGE:          0
cpu0->cpu0_STLB WRITE        ACCESS:          0 HIT:          0 MISS:          0 MSHR_MERGE:          0
cpu0->cpu0_STLB TRANSLATION  ACCESS:          0 HIT:          0 MISS:          0 MSHR_MERGE:          0
cpu0->cpu0_STLB PREFETCH REQUESTED:          0 ISSUED:          0 USEFUL:          0 USELESS:          0
cpu0->cpu0_STLB AVERAGE MISS LATENCY: - cycles
cpu0_STLB COHERENCE INVALIDATIONS:          0
cpu0->cpu0_L2C TOTAL        ACCESS:   11862026 HIT:    5748906 MISS:    6113120 MSHR_MERGE:          0
cpu0->cpu0_L2C LOAD         ACCESS:    1872342 HIT:     628455 MISS:    1243887 MSHR_MERGE:          0
cpu0->cpu0_L2C RFO          ACCESS:    4958325 HIT:      89290 MISS:    4869035 MSHR_MERGE:          0
cpu0->cpu0_L2C PREFETCH     ACCESS:          0 HIT:          0 MISS:          0 MSHR_MERGE:          0
cpu0->cpu0_L2C WRITE        ACCESS:    5031359 HIT:    5031161 MISS:        198 MSHR_MERGE:          0
cpu0->cpu0_L2C TRANSLATION  ACCESS:          0 HIT:          0 MISS:          0 MSHR_MERGE:          0
cpu0->cpu0_L2C PREFETCH REQUESTED:          0 ISSUED:          0 USEFUL:          0 USELESS:          0
cpu0->cpu0_L2C AVERAGE MISS LATENCY: 506.3 cycles
cpu0_L2C COHERENCE INVALIDATIONS:          0
cpu0->cpu0_L1I TOTAL        ACCESS:  166345812 HIT:  165980140 MISS:     365672 MSHR_MERGE:      96986
cpu0->cpu0_L1I LOAD         ACCESS:  166345812 HIT:  165980140 MISS:     365672 MSHR_MERGE:      96986
cpu0->cpu0_L1I RFO          ACCESS:          0 HIT:          0 MISS:          0 MSHR_MERGE:          0
cpu0->cpu0_L1I PREFETCH     ACCESS:          0 HIT:          0 MISS:          0 MSHR_MERGE:          0
cpu0->cpu0_L1I WRITE        ACCESS:          0 HIT:          0 MISS:          0 MSHR_MERGE:          0
cpu0->cpu0_L1I TRANSLATION  ACCESS:          0 HIT:          0 MISS:          0 MSHR_MERGE:          0
cpu0->cpu0_L1I PREFETCH REQUESTED:          0 ISSUED:          0 USEFUL:          0 USELESS:          0
cpu0->cpu0_L1I AVERAGE MISS LATENCY: 441.2 cycles
cpu0_L1I COHERENCE INVALIDATIONS:          0
cpu0->cpu0_L1D TOTAL        ACCESS:  191594770 HIT:  153245636 MISS:   38349134 MSHR_MERGE:   31783831
cpu0->cpu0_L1D LOAD         ACCESS:   20363020 HIT:   17095070 MISS:    3267950 MSHR_MERGE:    1664294
cpu0->cpu0_L1D RFO          ACCESS:          0 HIT:          0 MISS:          0 MSHR_MERGE:          0
cpu0->cpu0_L1D PREFETCH     ACCESS:          0 HIT:          0 MISS:          0 MSHR_MERGE:          0
cpu0->cpu0_L1D WRITE        ACCESS:  171231750 HIT:  136150566 MISS:   35081184 MSHR_MERGE:   30119537
cpu0->cpu0_L1D TRANSLATION  ACCESS:          0 HIT:          0 MISS:          0 MSHR_MERGE:          0
cpu0->cpu0_L1D PREFETCH REQUESTED:          0 ISSUED:          0 USEFUL:          0 USELESS:          0
cpu0->cpu0_L1D AVERAGE MISS LATENCY: 461.6 cycles
cpu0_L1D COHERENCE INVALIDATIONS:          0
cpu0->cpu0_ITLB TOTAL        ACCESS:  138489749 HIT:  138433844 MISS:      55905 MSHR_MERGE:      22047
cpu0->cpu0_ITLB LOAD         ACCESS:  138489749 HIT:  138433844 MISS:      55905 MSHR_MERGE:      22047
cpu0->cpu0_ITLB RFO          ACCESS:          0 HIT:          0 MISS:          0 MSHR_MERGE:          0
cpu0->cpu0_ITLB PREFETCH     ACCESS:          0 HIT:          0 MISS:          0 MSHR_MERGE:          0
cpu0->cpu0_ITLB WRITE        ACCESS:          0 HIT:          0 MISS:          0 MSHR_MERGE:          0
cpu0->cpu0_ITLB TRANSLATION  ACCESS:          0 HIT:          0 MISS:          0 MSHR_MERGE:          0
cpu0->cpu0_ITLB PREFETCH REQUESTED:          0 ISSUED:          0 USEFUL:          0 USELESS:          0
cpu0->cpu0_ITLB AVERAGE MISS LATENCY: 4.004 cycles
cpu0_ITLB COHERENCE INVALIDATIONS:          0
cpu0->cpu0_DTLB TOTAL        ACCESS:  159855802 HIT:  159416643 MISS:     439159 MSHR_MERGE:     101633
cpu0->cpu0_DTLB LOAD         ACCESS:  159855802 HIT:  159416643 MISS:     439159 MSHR_MERGE:     101633
cpu0->cpu0_DTLB RFO          ACCESS:          0 HIT:          0 MISS:          0 MSHR_MERGE:          0
cpu0->cpu0_DTLB PREFETCH     ACCESS:          0 HIT:          0 MISS:          0 MSHR_MERGE:          0
cpu0->cpu0_DTLB WRITE        ACCESS:          0 HIT:          0 MISS:          0 MSHR_MERGE:          0
cpu0->cpu0_DTLB TRANSLATION  ACCESS:          0 HIT:          0 MISS:          0 MSHR_MERGE:          0
cpu0->cpu0_DTLB PREFETCH REQUESTED:          0 ISSUED:          0 USEFUL:          0 USELESS:          0
cpu0->cpu0_DTLB AVERAGE MISS LATENCY: 4 cycles
cpu0_DTLB COHERENCE INVALIDATIONS:          0
cpu0->LLC TOTAL        ACCESS:   11034267 HIT:    3721825 MISS:    7312442 MSHR_MERGE:          0
cpu0->LLC LOAD         ACCESS:    1243887 HIT:       5392 MISS:    1238495 MSHR_MERGE:          0
cpu0->LLC RFO          ACCESS:    4869035 HIT:      31498 MISS:    4837537 MSHR_MERGE:          0
cpu0->LLC PREFETCH     ACCESS:          0 HIT:          0 MISS:          0 MSHR_MERGE:          0
cpu0->LLC WRITE        ACCESS:    4921345 HIT:    3684935 MISS:    1236410 MSHR_MERGE:          0
cpu0->LLC TRANSLATION  ACCESS:          0 HIT:          0 MISS:          0 MSHR_MERGE:          0
cpu0->LLC PREFETCH REQUESTED:          0 ISSUED:          0 USEFUL:          0 USELESS:          0
cpu0->LLC AVERAGE MISS LATENCY: 1021 cycles
cpu1->LLC TOTAL        ACCESS:    1951503 HIT:       1329 MISS:    1950174 MSHR_MERGE:          0
cpu1->LLC LOAD         ACCESS:    1562045 HIT:       1322 MISS:    1560723 MSHR_MERGE:          0
cpu1->LLC RFO          ACCESS:          0 HIT:          0 MISS:          0 MSHR_MERGE:          0
cpu1->LLC PREFETCH     ACCESS:          0 HIT:          0 MISS:          0 MSHR_MERGE:          0
cpu1->LLC WRITE        ACCESS:          0 HIT:          0 MISS:          0 MSHR_MERGE:          0
cpu1->LLC TRANSLATION  ACCESS:     389458 HIT:          7 MISS:     389451 MSHR_MERGE:          0
cpu1->LLC PREFETCH REQUESTED:          0 ISSUED:          0 USEFUL:          0 USELESS:          0
cpu1->LLC AVERAGE MISS LATENCY: 3827 cycles
cpu5->LLC TOTAL        ACCESS:   11015526 HIT:    3909089 MISS:    7106437 MSHR_MERGE:          0
cpu5->LLC LOAD         ACCESS:    1239682 HIT:       1412 MISS:    1238270 MSHR_MERGE:          0
cpu5->LLC RFO          ACCESS:    4861770 HIT:      12445 MISS:    4849325 MSHR_MERGE:          0
cpu5->LLC PREFETCH     ACCESS:          0 HIT:          0 MISS:          0 MSHR_MERGE:          0
cpu5->LLC WRITE        ACCESS:    4914074 HIT:    3895232 MISS:    1018842 MSHR_MERGE:          0
cpu5->LLC TRANSLATION  ACCESS:          0 HIT:          0 MISS:          0 MSHR_MERGE:          0
cpu5->LLC PREFETCH REQUESTED:          0 ISSUED:          0 USEFUL:          0 USELESS:          0
cpu5->LLC AVERAGE MISS LATENCY: 1050 cycles
cpu6->LLC TOTAL        ACCESS:    1941962 HIT:       1575 MISS:    1940387 MSHR_MERGE:          0
cpu6->LLC LOAD         ACCESS:    1554264 HIT:       1574 MISS:    1552690 MSHR_MERGE:          0
cpu6->LLC RFO          ACCESS:          0 HIT:          0 MISS:          0 MSHR_MERGE:          0
cpu6->LLC PREFETCH     ACCESS:          0 HIT:          0 MISS:          0 MSHR_MERGE:          0
cpu6->LLC WRITE        ACCESS:          0 HIT:          0 MISS:          0 MSHR_MERGE:          0
cpu6->LLC TRANSLATION  ACCESS:     387698 HIT:          1 MISS:     387697 MSHR_MERGE:          0
cpu6->LLC PREFETCH REQUESTED:          0 ISSUED:          0 USEFUL:          0 USELESS:          0
cpu6->LLC AVERAGE MISS LATENCY: 3846 cycles
LLC COHERENCE INVALIDATIONS:          0

DRAM Statistics

Channel 0 RQ ROW_BUFFER_HIT:    1047097
  ROW_BUFFER_MISS:   15006519
  AVG DBUS CONGESTED CYCLE: 7.938
Channel 0 WQ ROW_BUFFER_HIT:    1088197
  ROW_BUFFER_MISS:    8735216
  FULL:          0
Channel 0 REFRESHES ISSUED:      53361
