[VMEM] WARNING: physical memory size is smaller than virtual memory size.

*** ChampSim Multicore Out-of-Order Simulator ***
Warmup Instructions: 50000000
Simulation Instructions: 100000000
Number of CPUs: 8
Page size: 4096

Off-chip DRAM Size: 16 GiB Channels: 1 Width: 64-bit Data Rate: 3205 MT/s
*** Reached end of trace: (2, "traces/canneal_big2.champsimtrace")
*** Reached end of trace: (7, "traces/canneal_big2.champsimtrace")
*** Reached end of trace: (4, "traces/canneal_big4.champsimtrace")
*** Reached end of trace: (3, "traces/canneal_big3.champsimtrace")
*** Reached end of trace: (5, "traces/canneal_big0.champsimtrace")
*** Reached end of trace: (0, "traces/canneal_big0.champsimtrace")
*** Reached end of trace: (2, "traces/canneal_big2.champsimtrace")
*** Reached end of trace: (7, "traces/canneal_big2.champsimtrace")
*** Reached end of trace: (4, "traces/canneal_big4.champsimtrace")
*** Reached end of trace: (3, "traces/canneal_big3.champsimtrace")
Heartbeat CPU 2 instructions: 10000001 cycles: 2505209 heartbeat IPC: 3.992 cumulative IPC: 3.992 (Simulation time: 00 hr 07 min 28 sec)
Heartbeat CPU 7 instructions: 10000001 cycles: 2505215 heartbeat IPC: 3.992 cumulative IPC: 3.992 (Simulation time: 00 hr 07 min 28 sec)
Heartbeat CPU 4 instructions: 10000001 cycles: 2505240 heartbeat IPC: 3.992 cumulative IPC: 3.992 (Simulation time: 00 hr 07 min 28 sec)
Heartbeat CPU 3 instructions: 10000001 cycles: 2505262 heartbeat IPC: 3.992 cumulative IPC: 3.992 (Simulation time: 00 hr 07 min 28 sec)
*** Reached end of trace: (2, "traces/canneal_big2.champsimtrace")
*** Reached end of trace: (7, "traces/canneal_big2.champsimtrace")
*** Reached end of trace: (4, "traces/canneal_big4.champsimtrace")
*** Reached end of trace: (3, "traces/canneal_big3.champsimtrace")
*** Reached end of trace: (0, "traces/canneal_big0.champsimtrace")
Heartbeat CPU 0 instructions: 10000003 cycles: 4083258 heartbeat IPC: 2.449 cumulative IPC: 2.449 (Simulation time: 00 hr 11 min 43 sec)
*** Reached end of trace: (5, "traces/canneal_big0.champsimtrace")
Heartbeat CPU 5 instructions: 10000003 cycles: 4086242 heartbeat IPC: 2.447 cumulative IPC: 2.447 (Simulation time: 00 hr 11 min 43 sec)
*** Reached end of trace: (2, "traces/canneal_big2.champsimtrace")
*** Reached end of trace: (7, "traces/canneal_big2.champsimtrace")
*** Reached end of trace: (4, "traces/canneal_big4.champsimtrace")
*** Reached end of trace: (3, "traces/canneal_big3.champsimtrace")
Heartbeat CPU 2 instructions: 20000001 cycles: 5005209 heartbeat IPC: 4 cumulative IPC: 3.996 (Simulation time: 00 hr 14 min 09 sec)
Heartbeat CPU 7 instructions: 20000001 cycles: 5005215 heartbeat IPC: 4 cumulative IPC: 3.996 (Simulation time: 00 hr 14 min 09 sec)
Heartbeat CPU 4 instructions: 20000001 cycles: 5005240 heartbeat IPC: 4 cumulative IPC: 3.996 (Simulation time: 00 hr 14 min 09 sec)
Heartbeat CPU 3 instructions: 20000001 cycles: 5005262 heartbeat IPC: 4 cumulative IPC: 3.996 (Simulation time: 00 hr 14 min 09 sec)
*** Reached end of trace: (1, "traces/canneal_big1.champsimtrace")
*** Reached end of trace: (6, "traces/canneal_big1.champsimtrace")
*** Reached end of trace: (0, "traces/canneal_big0.champsimtrace")
*** Reached end of trace: (5, "traces/canneal_big0.champsimtrace")
*** Reached end of trace: (2, "traces/canneal_big2.champsimtrace")
*** Reached end of trace: (7, "traces/canneal_big2.champsimtrace")
*** Reached end of trace: (4, "traces/canneal_big4.champsimtrace")
*** Reached end of trace: (3, "traces/canneal_big3.champsimtrace")
*** Reached end of trace: (2, "traces/canneal_big2.champsimtrace")
*** Reached end of trace: (7, "traces/canneal_big2.champsimtrace")
*** Reached end of trace: (4, "traces/canneal_big4.champsimtrace")
*** Reached end of trace: (3, "traces/canneal_big3.champsimtrace")
Heartbeat CPU 2 instructions: 30000001 cycles: 7505209 heartbeat IPC: 4 cumulative IPC: 3.997 (Simulation time: 00 hr 21 min 12 sec)
Heartbeat CPU 7 instructions: 30000001 cycles: 7505215 heartbeat IPC: 4 cumulative IPC: 3.997 (Simulation time: 00 hr 21 min 12 sec)
Heartbeat CPU 4 instructions: 30000001 cycles: 7505240 heartbeat IPC: 4 cumulative IPC: 3.997 (Simulation time: 00 hr 21 min 12 sec)
Heartbeat CPU 3 instructions: 30000001 cycles: 7505262 heartbeat IPC: 4 cumulative IPC: 3.997 (Simulation time: 00 hr 21 min 12 sec)
*** Reached end of trace: (1, "traces/canneal_big1.champsimtrace")
Heartbeat CPU 1 instructions: 10000002 cycles: 7854394 heartbeat IPC: 1.273 cumulative IPC: 1.273 (Simulation time: 00 hr 22 min 16 sec)
*** Reached end of trace: (6, "traces/canneal_big1.champsimtrace")
Heartbeat CPU 6 instructions: 10000002 cycles: 7895917 heartbeat IPC: 1.266 cumulative IPC: 1.266 (Simulation time: 00 hr 22 min 24 sec)
*** Reached end of trace: (0, "traces/canneal_big0.champsimtrace")
Heartbeat CPU 0 instructions: 20000006 cycles: 7926367 heartbeat IPC: 2.602 cumulative IPC: 2.523 (Simulation time: 00 hr 22 min 30 sec)
*** Reached end of trace: (5, "traces/canneal_big0.champsimtrace")
Heartbeat CPU 5 instructions: 20000006 cycles: 7940941 heartbeat IPC: 2.594 cumulative IPC: 2.519 (Simulation time: 00 hr 22 min 33 sec)
*** Reached end of trace: (2, "traces/canneal_big2.champsimtrace")
*** Reached end of trace: (7, "traces/canneal_big2.champsimtrace")
*** Reached end of trace: (4, "traces/canneal_big4.champsimtrace")
*** Reached end of trace: (3, "traces/canneal_big3.champsimtrace")
*** Reached end of trace: (0, "traces/canneal_big0.champsimtrace")
*** Reached end of trace: (5, "traces/canneal_big0.champsimtrace")
*** Reached end of trace: (2, "traces/canneal_big2.champsimtrace")
*** Reached end of trace: (7, "traces/canneal_big2.champsimtrace")
*** Reached end of trace: (4, "traces/canneal_big4.champsimtrace")
*** Reached end of trace: (3, "traces/canneal_big3.champsimtrace")
Heartbeat CPU 2 instructions: 40000001 cycles: 10005209 heartbeat IPC: 4 cumulative IPC: 3.998 (Simulation time: 00 hr 28 min 37 sec)
Heartbeat CPU 7 instructions: 40000001 cycles: 10005215 heartbeat IPC: 4 cumulative IPC: 3.998 (Simulation time: 00 hr 28 min 37 sec)
Heartbeat CPU 4 instructions: 40000001 cycles: 10005240 heartbeat IPC: 4 cumulative IPC: 3.998 (Simulation time: 00 hr 28 min 37 sec)
Heartbeat CPU 3 instructions: 40000001 cycles: 10005262 heartbeat IPC: 4 cumulative IPC: 3.998 (Simulation time: 00 hr 28 min 37 sec)
*** Reached end of trace: (1, "traces/canneal_big1.champsimtrace")
*** Reached end of trace: (6, "traces/canneal_big1.champsimtrace")
*** Reached end of trace: (2, "traces/canneal_big2.champsimtrace")
*** Reached end of trace: (7, "traces/canneal_big2.champsimtrace")
*** Reached end of trace: (4, "traces/canneal_big4.champsimtrace")
*** Reached end of trace: (3, "traces/canneal_big3.champsimtrace")
*** Reached end of trace: (0, "traces/canneal_big0.champsimtrace")
Heartbeat CPU 0 instructions: 30000009 cycles: 11769398 heartbeat IPC: 2.602 cumulative IPC: 2.549 (Simulation time: 00 hr 34 min 19 sec)
*** Reached end of trace: (5, "traces/canneal_big0.champsimtrace")
Heartbeat CPU 5 instructions: 30000009 cycles: 11795562 heartbeat IPC: 2.594 cumulative IPC: 2.543 (Simulation time: 00 hr 34 min 25 sec)
*** Reached end of trace: (2, "traces/canneal_big2.champsimtrace")
*** Reached end of trace: (7, "traces/canneal_big2.champsimtrace")
*** Reached end of trace: (4, "traces/canneal_big4.champsimtrace")
*** Reached end of trace: (3, "traces/canneal_big3.champsimtrace")
Heartbeat CPU 2 instructions: 50000001 cycles: 12505209 heartbeat IPC: 4 cumulative IPC: 3.998 (Simulation time: 00 hr 36 min 58 sec)
Warmup finished CPU 2 instructions: 50000001 cycles: 12505209 cumulative IPC: 3.998 (Simulation time: 00 hr 36 min 58 sec)
Heartbeat CPU 7 instructions: 50000001 cycles: 12505215 heartbeat IPC: 4 cumulative IPC: 3.998 (Simulation time: 00 hr 36 min 58 sec)
Warmup finished CPU 7 instructions: 50000001 cycles: 12505215 cumulative IPC: 3.998 (Simulation time: 00 hr 36 min 58 sec)
Heartbeat CPU 4 instructions: 50000001 cycles: 12505240 heartbeat IPC: 4 cumulative IPC: 3.998 (Simulation time: 00 hr 36 min 58 sec)
Warmup finished CPU 4 instructions: 50000001 cycles: 12505240 cumulative IPC: 3.998 (Simulation time: 00 hr 36 min 58 sec)
Heartbeat CPU 3 instructions: 50000001 cycles: 12505262 heartbeat IPC: 4 cumulative IPC: 3.998 (Simulation time: 00 hr 36 min 58 sec)
Warmup finished CPU 3 instructions: 50000001 cycles: 12505262 cumulative IPC: 3.998 (Simulation time: 00 hr 36 min 58 sec)
*** Reached end of trace: (1, "traces/canneal_big1.champsimtrace")
Heartbeat CPU 1 instructions: 20000004 cycles: 13543868 heartbeat IPC: 1.758 cumulative IPC: 1.477 (Simulation time: 00 hr 40 min 31 sec)
*** Reached end of trace: (6, "traces/canneal_big1.champsimtrace")
Heartbeat CPU 6 instructions: 20000004 cycles: 13624895 heartbeat IPC: 1.746 cumulative IPC: 1.468 (Simulation time: 00 hr 40 min 44 sec)
*** Reached end of trace: (0, "traces/canneal_big0.champsimtrace")
*** Reached end of trace: (5, "traces/canneal_big0.champsimtrace")
*** Reached end of trace: (2, "traces/canneal_big2.champsimtrace")
*** Reached end of trace: (7, "traces/canneal_big2.champsimtrace")
*** Reached end of trace: (4, "traces/canneal_big4.champsimtrace")
*** Reached end of trace: (3, "traces/canneal_big3.champsimtrace")
*** Reached end of trace: (2, "traces/canneal_big2.champsimtrace")
*** Reached end of trace: (7, "traces/canneal_big2.champsimtrace")
*** Reached end of trace: (4, "traces/canneal_big4.champsimtrace")
*** Reached end of trace: (3, "traces/canneal_big3.champsimtrace")
Heartbeat CPU 2 instructions: 60000001 cycles: 15005209 heartbeat IPC: 4 cumulative IPC: 3.999 (Simulation time: 00 hr 44 min 45 sec)
Heartbeat CPU 7 instructions: 60000001 cycles: 15005215 heartbeat IPC: 4 cumulative IPC: 3.999 (Simulation time: 00 hr 44 min 45 sec)
Heartbeat CPU 4 instructions: 60000001 cycles: 15005240 heartbeat IPC: 4 cumulative IPC: 3.999 (Simulation time: 00 hr 44 min 45 sec)
Heartbeat CPU 3 instructions: 60000001 cycles: 15005262 heartbeat IPC: 4 cumulative IPC: 3.999 (Simulation time: 00 hr 44 min 45 sec)
*** Reached end of trace: (0, "traces/canneal_big0.champsimtrace")
Heartbeat CPU 0 instructions: 40000012 cycles: 15612429 heartbeat IPC: 2.602 cumulative IPC: 2.562 (Simulation time: 00 hr 46 min 19 sec)
*** Reached end of trace: (5, "traces/canneal_big0.champsimtrace")
Heartbeat CPU 5 instructions: 40000012 cycles: 15650183 heartbeat IPC: 2.594 cumulative IPC: 2.556 (Simulation time: 00 hr 46 min 25 sec)
*** Reached end of trace: (2, "traces/canneal_big2.champsimtrace")
*** Reached end of trace: (7, "traces/canneal_big2.champsimtrace")
*** Reached end of trace: (4, "traces/canneal_big4.champsimtrace")
*** Reached end of trace: (3, "traces/canneal_big3.champsimtrace")
*** Reached end of trace: (1, "traces/canneal_big1.champsimtrace")
*** Reached end of trace: (6, "traces/canneal_big1.champsimtrace")
*** Reached end of trace: (2, "traces/canneal_big2.champsimtrace")
*** Reached end of trace: (7, "traces/canneal_big2.champsimtrace")
*** Reached end of trace: (4, "traces/canneal_big4.champsimtrace")
*** Reached end of trace: (3, "traces/canneal_big3.champsimtrace")
Heartbeat CPU 2 instructions: 70000001 cycles: 17505209 heartbeat IPC: 4 cumulative IPC: 3.999 (Simulation time: 00 hr 51 min 17 sec)
Heartbeat CPU 7 instructions: 70000001 cycles: 17505215 heartbeat IPC: 4 cumulative IPC: 3.999 (Simulation time: 00 hr 51 min 17 sec)
Heartbeat CPU 4 instructions: 70000001 cycles: 17505240 heartbeat IPC: 4 cumulative IPC: 3.999 (Simulation time: 00 hr 51 min 17 sec)
Heartbeat CPU 3 instructions: 70000001 cycles: 17505262 heartbeat IPC: 4 cumulative IPC: 3.999 (Simulation time: 00 hr 51 min 17 sec)
*** Reached end of trace: (0, "traces/canneal_big0.champsimtrace")
*** Reached end of trace: (5, "traces/canneal_big0.champsimtrace")
*** Reached end of trace: (2, "traces/canneal_big2.champsimtrace")
*** Reached end of trace: (7, "traces/canneal_big2.champsimtrace")
*** Reached end of trace: (4, "traces/canneal_big4.champsimtrace")
*** Reached end of trace: (3, "traces/canneal_big3.champsimtrace")
*** Reached end of trace: (1, "traces/canneal_big1.champsimtrace")
Heartbeat CPU 1 instructions: 30000004 cycles: 19233329 heartbeat IPC: 1.758 cumulative IPC: 1.56 (Simulation time: 00 hr 56 min 24 sec)
*** Reached end of trace: (6, "traces/canneal_big1.champsimtrace")
Heartbeat CPU 6 instructions: 30000004 cycles: 19353856 heartbeat IPC: 1.746 cumulative IPC: 1.55 (Simulation time: 00 hr 56 min 48 sec)
*** Reached end of trace: (0, "traces/canneal_big0.champsimtrace")
Warmup finished CPU 0 instructions: 50000000 cycles: 19455457 cumulative IPC: 2.57 (Simulation time: 00 hr 57 min 06 sec)
Heartbeat CPU 0 instructions: 50000015 cycles: 19455460 heartbeat IPC: 2.602 cumulative IPC: 2.57 (Simulation time: 00 hr 57 min 06 sec)
*** Reached end of trace: (5, "traces/canneal_big0.champsimtrace")
Warmup finished CPU 5 instructions: 50000000 cycles: 19504801 cumulative IPC: 2.563 (Simulation time: 00 hr 57 min 15 sec)
Heartbeat CPU 5 instructions: 50000015 cycles: 19504804 heartbeat IPC: 2.594 cumulative IPC: 2.563 (Simulation time: 00 hr 57 min 15 sec)
*** Reached end of trace: (2, "traces/canneal_big2.champsimtrace")
*** Reached end of trace: (7, "traces/canneal_big2.champsimtrace")
*** Reached end of trace: (4, "traces/canneal_big4.champsimtrace")
*** Reached end of trace: (3, "traces/canneal_big3.champsimtrace")
Heartbeat CPU 2 instructions: 80000001 cycles: 20005209 heartbeat IPC: 4 cumulative IPC: 3.999 (Simulation time: 00 hr 58 min 56 sec)
Heartbeat CPU 7 instructions: 80000001 cycles: 20005215 heartbeat IPC: 4 cumulative IPC: 3.999 (Simulation time: 00 hr 58 min 56 sec)
Heartbeat CPU 4 instructions: 80000001 cycles: 20005240 heartbeat IPC: 4 cumulative IPC: 3.999 (Simulation time: 00 hr 58 min 56 sec)
Heartbeat CPU 3 instructions: 80000001 cycles: 20005262 heartbeat IPC: 4 cumulative IPC: 3.999 (Simulation time: 00 hr 58 min 56 sec)
*** Reached end of trace: (2, "traces/canneal_big2.champsimtrace")
*** Reached end of trace: (7, "traces/canneal_big2.champsimtrace")
*** Reached end of trace: (4, "traces/canneal_big4.champsimtrace")
*** Reached end of trace: (3, "traces/canneal_big3.champsimtrace")
*** Reached end of trace: (0, "traces/canneal_big0.champsimtrace")
*** Reached end of trace: (5, "traces/canneal_big0.champsimtrace")
*** Reached end of trace: (1, "traces/canneal_big1.champsimtrace")
*** Reached end of trace: (6, "traces/canneal_big1.champsimtrace")
*** Reached end of trace: (2, "traces/canneal_big2.champsimtrace")
*** Reached end of trace: (7, "traces/canneal_big2.champsimtrace")
*** Reached end of trace: (4, "traces/canneal_big4.champsimtrace")
*** Reached end of trace: (3, "traces/canneal_big3.champsimtrace")
Heartbeat CPU 2 instructions: 90000001 cycles: 22505209 heartbeat IPC: 4 cumulative IPC: 3.999 (Simulation time: 01 hr 06 min 39 sec)
Heartbeat CPU 7 instructions: 90000001 cycles: 22505215 heartbeat IPC: 4 cumulative IPC: 3.999 (Simulation time: 01 hr 06 min 39 sec)
Heartbeat CPU 4 instructions: 90000001 cycles: 22505240 heartbeat IPC: 4 cumulative IPC: 3.999 (Simulation time: 01 hr 06 min 39 sec)
Heartbeat CPU 3 instructions: 90000001 cycles: 22505262 heartbeat IPC: 4 cumulative IPC: 3.999 (Simulation time: 01 hr 06 min 39 sec)
*** Reached end of trace: (0, "traces/canneal_big0.champsimtrace")
Heartbeat CPU 0 instructions: 60000018 cycles: 23298491 heartbeat IPC: 2.602 cumulative IPC: 2.575 (Simulation time: 01 hr 08 min 54 sec)
*** Reached end of trace: (5, "traces/canneal_big0.champsimtrace")
Heartbeat CPU 5 instructions: 60000018 cycles: 23359425 heartbeat IPC: 2.594 cumulative IPC: 2.569 (Simulation time: 01 hr 09 min 05 sec)
*** Reached end of trace: (2, "traces/canneal_big2.champsimtrace")
*** Reached end of trace: (7, "traces/canneal_big2.champsimtrace")
*** Reached end of trace: (4, "traces/canneal_big4.champsimtrace")
*** Reached end of trace: (3, "traces/canneal_big3.champsimtrace")
*** Reached end of trace: (1, "traces/canneal_big1.champsimtrace")
Heartbeat CPU 1 instructions: 40000006 cycles: 24922821 heartbeat IPC: 1.758 cumulative IPC: 1.605 (Simulation time: 01 hr 14 min 23 sec)
*** Reached end of trace: (2, "traces/canneal_big2.champsimtrace")
*** Reached end of trace: (7, "traces/canneal_big2.champsimtrace")
*** Reached end of trace: (4, "traces/canneal_big4.champsimtrace")
*** Reached end of trace: (3, "traces/canneal_big3.champsimtrace")
Heartbeat CPU 2 instructions: 100000001 cycles: 25005209 heartbeat IPC: 4 cumulative IPC: 3.999 (Simulation time: 01 hr 14 min 42 sec)
Heartbeat CPU 7 instructions: 100000001 cycles: 25005215 heartbeat IPC: 4 cumulative IPC: 3.999 (Simulation time: 01 hr 14 min 42 sec)
Heartbeat CPU 4 instructions: 100000001 cycles: 25005240 heartbeat IPC: 4 cumulative IPC: 3.999 (Simulation time: 01 hr 14 min 42 sec)
Heartbeat CPU 3 instructions: 100000001 cycles: 25005262 heartbeat IPC: 4 cumulative IPC: 3.999 (Simulation time: 01 hr 14 min 42 sec)
*** Reached end of trace: (6, "traces/canneal_big1.champsimtrace")
Heartbeat CPU 6 instructions: 40000006 cycles: 25082835 heartbeat IPC: 1.746 cumulative IPC: 1.595 (Simulation time: 01 hr 14 min 59 sec)
*** Reached end of trace: (0, "traces/canneal_big0.champsimtrace")
*** Reached end of trace: (5, "traces/canneal_big0.champsimtrace")
*** Reached end of trace: (2, "traces/canneal_big2.champsimtrace")
*** Reached end of trace: (7, "traces/canneal_big2.champsimtrace")
*** Reached end of trace: (4, "traces/canneal_big4.champsimtrace")
*** Reached end of trace: (3, "traces/canneal_big3.champsimtrace")
*** Reached end of trace: (0, "traces/canneal_big0.champsimtrace")
Heartbeat CPU 0 instructions: 70000021 cycles: 27141522 heartbeat IPC: 2.602 cumulative IPC: 2.579 (Simulation time: 01 hr 21 min 38 sec)
*** Reached end of trace: (5, "traces/canneal_big0.champsimtrace")
Heartbeat CPU 5 instructions: 70000021 cycles: 27214046 heartbeat IPC: 2.594 cumulative IPC: 2.572 (Simulation time: 01 hr 21 min 50 sec)
*** Reached end of trace: (2, "traces/canneal_big2.champsimtrace")
*** Reached end of trace: (7, "traces/canneal_big2.champsimtrace")
*** Reached end of trace: (4, "traces/canneal_big4.champsimtrace")
*** Reached end of trace: (3, "traces/canneal_big3.champsimtrace")
Heartbeat CPU 2 instructions: 110000001 cycles: 27505209 heartbeat IPC: 4 cumulative IPC: 3.999 (Simulation time: 01 hr 22 min 47 sec)
Heartbeat CPU 7 instructions: 110000001 cycles: 27505215 heartbeat IPC: 4 cumulative IPC: 3.999 (Simulation time: 01 hr 22 min 47 sec)
Heartbeat CPU 4 instructions: 110000001 cycles: 27505240 heartbeat IPC: 4 cumulative IPC: 3.999 (Simulation time: 01 hr 22 min 47 sec)
Heartbeat CPU 3 instructions: 110000001 cycles: 27505262 heartbeat IPC: 4 cumulative IPC: 3.999 (Simulation time: 01 hr 22 min 47 sec)
*** Reached end of trace: (1, "traces/canneal_big1.champsimtrace")
*** Reached end of trace: (6, "traces/canneal_big1.champsimtrace")
*** Reached end of trace: (2, "traces/canneal_big2.champsimtrace")
*** Reached end of trace: (7, "traces/canneal_big2.champsimtrace")
*** Reached end of trace: (4, "traces/canneal_big4.champsimtrace")
*** Reached end of trace: (3, "traces/canneal_big3.champsimtrace")
*** Reached end of trace: (0, "traces/canneal_big0.champsimtrace")
*** Reached end of trace: (5, "traces/canneal_big0.champsimtrace")
*** Reached end of trace: (2, "traces/canneal_big2.champsimtrace")
*** Reached end of trace: (7, "traces/canneal_big2.champsimtrace")
*** Reached end of trace: (4, "traces/canneal_big4.champsimtrace")
*** Reached end of trace: (3, "traces/canneal_big3.champsimtrace")
Heartbeat CPU 2 instructions: 120000001 cycles: 30005209 heartbeat IPC: 4 cumulative IPC: 3.999 (Simulation time: 01 hr 29 min 15 sec)
Heartbeat CPU 7 instructions: 120000001 cycles: 30005215 heartbeat IPC: 4 cumulative IPC: 3.999 (Simulation time: 01 hr 29 min 15 sec)
Heartbeat CPU 4 instructions: 120000001 cycles: 30005240 heartbeat IPC: 4 cumulative IPC: 3.999 (Simulation time: 01 hr 29 min 15 sec)
Heartbeat CPU 3 instructions: 120000001 cycles: 30005262 heartbeat IPC: 4 cumulative IPC: 3.999 (Simulation time: 01 hr 29 min 15 sec)
*** Reached end of trace: (1, "traces/canneal_big1.champsimtrace")
Warmup finished CPU 1 instructions: 50000000 cycles: 30612259 cumulative IPC: 1.633 (Simulation time: 01 hr 30 min 44 sec)
Heartbeat CPU 1 instructions: 50000008 cycles: 30612282 heartbeat IPC: 1.758 cumulative IPC: 1.633 (Simulation time: 01 hr 30 min 44 sec)
*** Reached end of trace: (6, "traces/canneal_big1.champsimtrace")
Warmup finished CPU 6 instructions: 50000000 cycles: 30811776 cumulative IPC: 1.623 (Simulation time: 01 hr 31 min 13 sec)
Warmup complete CPU 7 instructions: 123226245 cycles: 30811776 cumulative IPC: 3.999 (Simulation time: 01 hr 31 min 13 sec)
Warmup complete CPU 6 instructions: 50000000 cycles: 30811776 cumulative IPC: 1.623 (Simulation time: 01 hr 31 min 13 sec)
Warmup complete CPU 5 instructions: 79380809 cycles: 30811776 cumulative IPC: 2.576 (Simulation time: 01 hr 31 min 13 sec)
Warmup complete CPU 4 instructions: 123226145 cycles: 30811776 cumulative IPC: 3.999 (Simulation time: 01 hr 31 min 13 sec)
Warmup complete CPU 3 instructions: 123226057 cycles: 30811776 cumulative IPC: 3.999 (Simulation time: 01 hr 31 min 13 sec)
Warmup complete CPU 2 instructions: 123226269 cycles: 30811776 cumulative IPC: 3.999 (Simulation time: 01 hr 31 min 13 sec)
Warmup complete CPU 1 instructions: 50306540 cycles: 30811776 cumulative IPC: 1.633 (Simulation time: 01 hr 31 min 13 sec)
Warmup complete CPU 0 instructions: 79582729 cycles: 30811776 cumulative IPC: 2.583 (Simulation time: 01 hr 31 min 13 sec)
Heartbeat CPU 6 instructions: 50000008 cycles: 30812002 heartbeat IPC: 1.745 cumulative IPC: 0.0354 (Simulation time: 01 hr 31 min 13 sec)
*** Reached end of trace: (0, "traces/canneal_big0.champsimtrace")
Heartbeat CPU 0 instructions: 80000021 cycles: 31052585 heartbeat IPC: 2.557 cumulative IPC: 1.733 (Simulation time: 01 hr 31 min 47 sec)
*** Reached end of trace: (5, "traces/canneal_big0.champsimtrace")
Heartbeat CPU 5 instructions: 80000021 cycles: 31148556 heartbeat IPC: 2.542 cumulative IPC: 1.839 (Simulation time: 01 hr 32 min 03 sec)
*** Reached end of trace: (2, "traces/canneal_big2.champsimtrace")
*** Reached end of trace: (7, "traces/canneal_big2.champsimtrace")
*** Reached end of trace: (4, "traces/canneal_big4.champsimtrace")
*** Reached end of trace: (3, "traces/canneal_big3.champsimtrace")
*** Reached end of trace: (2, "traces/canneal_big2.champsimtrace")
*** Reached end of trace: (7, "traces/canneal_big2.champsimtrace")
*** Reached end of trace: (4, "traces/canneal_big4.champsimtrace")
*** Reached end of trace: (3, "traces/canneal_big3.champsimtrace")
Heartbeat CPU 2 instructions: 130000001 cycles: 32505209 heartbeat IPC: 4 cumulative IPC: 4 (Simulation time: 01 hr 35 min 53 sec)
Heartbeat CPU 7 instructions: 130000001 cycles: 32505215 heartbeat IPC: 4 cumulative IPC: 4 (Simulation time: 01 hr 35 min 53 sec)
Heartbeat CPU 4 instructions: 130000001 cycles: 32505240 heartbeat IPC: 4 cumulative IPC: 4 (Simulation time: 01 hr 35 min 53 sec)
Heartbeat CPU 3 instructions: 130000001 cycles: 32505262 heartbeat IPC: 4 cumulative IPC: 4 (Simulation time: 01 hr 35 min 53 sec)
*** Reached end of trace: (0, "traces/canneal_big0.champsimtrace")
*** Reached end of trace: (5, "traces/canneal_big0.champsimtrace")
*** Reached end of trace: (2, "traces/canneal_big2.champsimtrace")
*** Reached end of trace: (7, "traces/canneal_big2.champsimtrace")
*** Reached end of trace: (4, "traces/canneal_big4.champsimtrace")
*** Reached end of trace: (3, "traces/canneal_big3.champsimtrace")
*** Reached end of trace: (2, "traces/canneal_big2.champsimtrace")
*** Reached end of trace: (7, "traces/canneal_big2.champsimtrace")
*** Reached end of trace: (4, "traces/canneal_big4.champsimtrace")
*** Reached end of trace: (3, "traces/canneal_big3.champsimtrace")
Heartbeat CPU 2 instructions: 140000001 cycles: 35005209 heartbeat IPC: 4 cumulative IPC: 4 (Simulation time: 01 hr 42 min 55 sec)
Heartbeat CPU 7 instructions: 140000001 cycles: 35005215 heartbeat IPC: 4 cumulative IPC: 4 (Simulation time: 01 hr 42 min 55 sec)
Heartbeat CPU 4 instructions: 140000001 cycles: 35005240 heartbeat IPC: 4 cumulative IPC: 4 (Simulation time: 01 hr 42 min 55 sec)
Heartbeat CPU 3 instructions: 140000001 cycles: 35005262 heartbeat IPC: 4 cumulative IPC: 4 (Simulation time: 01 hr 42 min 56 sec)
*** Reached end of trace: (0, "traces/canneal_big0.champsimtrace")
Heartbeat CPU 0 instructions: 90000022 cycles: 35874343 heartbeat IPC: 2.074 cumulative IPC: 2.058 (Simulation time: 01 hr 45 min 41 sec)
*** Reached end of trace: (5, "traces/canneal_big0.champsimtrace")
Heartbeat CPU 5 instructions: 90000022 cycles: 36003279 heartbeat IPC: 2.06 cumulative IPC: 2.045 (Simulation time: 01 hr 46 min 04 sec)
*** Reached end of trace: (2, "traces/canneal_big2.champsimtrace")
*** Reached end of trace: (7, "traces/canneal_big2.champsimtrace")
*** Reached end of trace: (4, "traces/canneal_big4.champsimtrace")
*** Reached end of trace: (3, "traces/canneal_big3.champsimtrace")
*** Reached end of trace: (2, "traces/canneal_big2.champsimtrace")
*** Reached end of trace: (7, "traces/canneal_big2.champsimtrace")
*** Reached end of trace: (4, "traces/canneal_big4.champsimtrace")
*** Reached end of trace: (3, "traces/canneal_big3.champsimtrace")
Heartbeat CPU 2 instructions: 150000001 cycles: 37505209 heartbeat IPC: 4 cumulative IPC: 4 (Simulation time: 01 hr 50 min 38 sec)
Heartbeat CPU 7 instructions: 150000001 cycles: 37505215 heartbeat IPC: 4 cumulative IPC: 4 (Simulation time: 01 hr 50 min 38 sec)
Heartbeat CPU 4 instructions: 150000001 cycles: 37505240 heartbeat IPC: 4 cumulative IPC: 4 (Simulation time: 01 hr 50 min 38 sec)
Heartbeat CPU 3 instructions: 150000001 cycles: 37505262 heartbeat IPC: 4 cumulative IPC: 4 (Simulation time: 01 hr 50 min 38 sec)
*** Reached end of trace: (0, "traces/canneal_big0.champsimtrace")
*** Reached end of trace: (5, "traces/canneal_big0.champsimtrace")
*** Reached end of trace: (2, "traces/canneal_big2.champsimtrace")
*** Reached end of trace: (7, "traces/canneal_big2.champsimtrace")
*** Reached end of trace: (4, "traces/canneal_big4.champsimtrace")
*** Reached end of trace: (3, "traces/canneal_big3.champsimtrace")
*** Reached end of trace: (2, "traces/canneal_big2.champsimtrace")
*** Reached end of trace: (7, "traces/canneal_big2.champsimtrace")
*** Reached end of trace: (4, "traces/canneal_big4.champsimtrace")
*** Reached end of trace: (3, "traces/canneal_big3.champsimtrace")
Heartbeat CPU 2 instructions: 160000001 cycles: 40005209 heartbeat IPC: 4 cumulative IPC: 4 (Simulation time: 01 hr 56 min 55 sec)
Heartbeat CPU 7 instructions: 160000001 cycles: 40005215 heartbeat IPC: 4 cumulative IPC: 4 (Simulation time: 01 hr 56 min 55 sec)
Heartbeat CPU 4 instructions: 160000001 cycles: 40005240 heartbeat IPC: 4 cumulative IPC: 4 (Simulation time: 01 hr 56 min 55 sec)
Heartbeat CPU 3 instructions: 160000001 cycles: 40005262 heartbeat IPC: 4 cumulative IPC: 4 (Simulation time: 01 hr 56 min 55 sec)
*** Reached end of trace: (0, "traces/canneal_big0.champsimtrace")
Heartbeat CPU 0 instructions: 100000022 cycles: 40659527 heartbeat IPC: 2.09 cumulative IPC: 2.073 (Simulation time: 01 hr 58 min 30 sec)
*** Reached end of trace: (5, "traces/canneal_big0.champsimtrace")
Heartbeat CPU 5 instructions: 100000025 cycles: 40852690 heartbeat IPC: 2.062 cumulative IPC: 2.054 (Simulation time: 01 hr 58 min 59 sec)
*** Reached end of trace: (2, "traces/canneal_big2.champsimtrace")
*** Reached end of trace: (7, "traces/canneal_big2.champsimtrace")
*** Reached end of trace: (4, "traces/canneal_big4.champsimtrace")
*** Reached end of trace: (3, "traces/canneal_big3.champsimtrace")
*** Reached end of trace: (2, "traces/canneal_big2.champsimtrace")
*** Reached end of trace: (7, "traces/canneal_big2.champsimtrace")
*** Reached end of trace: (4, "traces/canneal_big4.champsimtrace")
*** Reached end of trace: (3, "traces/canneal_big3.champsimtrace")
Heartbeat CPU 2 instructions: 170000001 cycles: 42505209 heartbeat IPC: 4 cumulative IPC: 4 (Simulation time: 02 hr 03 min 46 sec)
Heartbeat CPU 7 instructions: 170000001 cycles: 42505215 heartbeat IPC: 4 cumulative IPC: 4 (Simulation time: 02 hr 03 min 46 sec)
Heartbeat CPU 4 instructions: 170000001 cycles: 42505240 heartbeat IPC: 4 cumulative IPC: 4 (Simulation time: 02 hr 03 min 46 sec)
Heartbeat CPU 3 instructions: 170000001 cycles: 42505262 heartbeat IPC: 4 cumulative IPC: 4 (Simulation time: 02 hr 03 min 46 sec)
*** Reached end of trace: (0, "traces/canneal_big0.champsimtrace")
*** Reached end of trace: (5, "traces/canneal_big0.champsimtrace")
*** Reached end of trace: (2, "traces/canneal_big2.champsimtrace")
*** Reached end of trace: (7, "traces/canneal_big2.champsimtrace")
*** Reached end of trace: (4, "traces/canneal_big4.champsimtrace")
*** Reached end of trace: (3, "traces/canneal_big3.champsimtrace")
*** Reached end of trace: (2, "traces/canneal_big2.champsimtrace")
*** Reached end of trace: (7, "traces/canneal_big2.champsimtrace")
*** Reached end of trace: (4, "traces/canneal_big4.champsimtrace")
*** Reached end of trace: (3, "traces/canneal_big3.champsimtrace")
Heartbeat CPU 2 instructions: 180000001 cycles: 45005209 heartbeat IPC: 4 cumulative IPC: 4 (Simulation time: 02 hr 12 min 42 sec)
Heartbeat CPU 7 instructions: 180000001 cycles: 45005215 heartbeat IPC: 4 cumulative IPC: 4 (Simulation time: 02 hr 12 min 42 sec)
Heartbeat CPU 4 instructions: 180000001 cycles: 45005240 heartbeat IPC: 4 cumulative IPC: 4 (Simulation time: 02 hr 12 min 42 sec)
Heartbeat CPU 3 instructions: 180000001 cycles: 45005262 heartbeat IPC: 4 cumulative IPC: 4 (Simulation time: 02 hr 12 min 42 sec)
*** Reached end of trace: (0, "traces/canneal_big0.champsimtrace")
Heartbeat CPU 0 instructions: 110000025 cycles: 45444933 heartbeat IPC: 2.09 cumulative IPC: 2.079 (Simulation time: 02 hr 14 min 14 sec)
*** Reached end of trace: (5, "traces/canneal_big0.champsimtrace")
Heartbeat CPU 5 instructions: 110000025 cycles: 45678431 heartbeat IPC: 2.072 cumulative IPC: 2.06 (Simulation time: 02 hr 14 min 58 sec)
*** Reached end of trace: (2, "traces/canneal_big2.champsimtrace")
*** Reached end of trace: (7, "traces/canneal_big2.champsimtrace")
*** Reached end of trace: (4, "traces/canneal_big4.champsimtrace")
*** Reached end of trace: (3, "traces/canneal_big3.champsimtrace")
*** Reached end of trace: (2, "traces/canneal_big2.champsimtrace")
*** Reached end of trace: (7, "traces/canneal_big2.champsimtrace")
*** Reached end of trace: (4, "traces/canneal_big4.champsimtrace")
*** Reached end of trace: (3, "traces/canneal_big3.champsimtrace")
Heartbeat CPU 2 instructions: 190000001 cycles: 47505209 heartbeat IPC: 4 cumulative IPC: 4 (Simulation time: 02 hr 21 min 03 sec)
Heartbeat CPU 7 instructions: 190000001 cycles: 47505215 heartbeat IPC: 4 cumulative IPC: 4 (Simulation time: 02 hr 21 min 03 sec)
Heartbeat CPU 4 instructions: 190000001 cycles: 47505240 heartbeat IPC: 4 cumulative IPC: 4 (Simulation time: 02 hr 21 min 03 sec)
Heartbeat CPU 3 instructions: 190000001 cycles: 47505262 heartbeat IPC: 4 cumulative IPC: 4 (Simulation time: 02 hr 21 min 03 sec)
*** Reached end of trace: (0, "traces/canneal_big0.champsimtrace")
*** Reached end of trace: (5, "traces/canneal_big0.champsimtrace")
*** Reached end of trace: (2, "traces/canneal_big2.champsimtrace")
*** Reached end of trace: (7, "traces/canneal_big2.champsimtrace")
*** Reached end of trace: (4, "traces/canneal_big4.champsimtrace")
*** Reached end of trace: (3, "traces/canneal_big3.champsimtrace")
*** Reached end of trace: (2, "traces/canneal_big2.champsimtrace")
*** Reached end of trace: (7, "traces/canneal_big2.champsimtrace")
*** Reached end of trace: (4, "traces/canneal_big4.champsimtrace")
*** Reached end of trace: (3, "traces/canneal_big3.champsimtrace")
Heartbeat CPU 2 instructions: 200000001 cycles: 50005209 heartbeat IPC: 4 cumulative IPC: 4 (Simulation time: 02 hr 30 min 19 sec)
Heartbeat CPU 7 instructions: 200000001 cycles: 50005215 heartbeat IPC: 4 cumulative IPC: 4 (Simulation time: 02 hr 30 min 19 sec)
Heartbeat CPU 4 instructions: 200000001 cycles: 50005240 heartbeat IPC: 4 cumulative IPC: 4 (Simulation time: 02 hr 30 min 19 sec)
Heartbeat CPU 3 instructions: 200000001 cycles: 50005262 heartbeat IPC: 4 cumulative IPC: 4 (Simulation time: 02 hr 30 min 19 sec)
*** Reached end of trace: (0, "traces/canneal_big0.champsimtrace")
Heartbeat CPU 0 instructions: 120000026 cycles: 50186182 heartbeat IPC: 2.109 cumulative IPC: 2.086 (Simulation time: 02 hr 30 min 53 sec)
*** Reached end of trace: (5, "traces/canneal_big0.champsimtrace")
Heartbeat CPU 5 instructions: 120000028 cycles: 50505862 heartbeat IPC: 2.071 cumulative IPC: 2.063 (Simulation time: 02 hr 31 min 49 sec)
*** Reached end of trace: (2, "traces/canneal_big2.champsimtrace")
*** Reached end of trace: (7, "traces/canneal_big2.champsimtrace")
*** Reached end of trace: (4, "traces/canneal_big4.champsimtrace")
*** Reached end of trace: (3, "traces/canneal_big3.champsimtrace")
*** Reached end of trace: (2, "traces/canneal_big2.champsimtrace")
*** Reached end of trace: (7, "traces/canneal_big2.champsimtrace")
*** Reached end of trace: (4, "traces/canneal_big4.champsimtrace")
*** Reached end of trace: (3, "traces/canneal_big3.champsimtrace")
Heartbeat CPU 2 instructions: 210000001 cycles: 52505209 heartbeat IPC: 4 cumulative IPC: 4 (Simulation time: 02 hr 37 min 32 sec)
Heartbeat CPU 7 instructions: 210000001 cycles: 52505215 heartbeat IPC: 4 cumulative IPC: 4 (Simulation time: 02 hr 37 min 32 sec)
Heartbeat CPU 4 instructions: 210000001 cycles: 52505240 heartbeat IPC: 4 cumulative IPC: 4 (Simulation time: 02 hr 37 min 32 sec)
Heartbeat CPU 3 instructions: 210000001 cycles: 52505262 heartbeat IPC: 4 cumulative IPC: 4 (Simulation time: 02 hr 37 min 32 sec)
*** Reached end of trace: (0, "traces/canneal_big0.champsimtrace")
*** Reached end of trace: (5, "traces/canneal_big0.champsimtrace")
*** Reached end of trace: (2, "traces/canneal_big2.champsimtrace")
*** Reached end of trace: (7, "traces/canneal_big2.champsimtrace")
*** Reached end of trace: (4, "traces/canneal_big4.champsimtrace")
*** Reached end of trace: (3, "traces/canneal_big3.champsimtrace")
*** Reached end of trace: (0, "traces/canneal_big0.champsimtrace")
Heartbeat CPU 0 instructions: 130000026 cycles: 54917406 heartbeat IPC: 2.114 cumulative IPC: 2.092 (Simulation time: 02 hr 43 min 34 sec)
*** Reached end of trace: (2, "traces/canneal_big2.champsimtrace")
*** Reached end of trace: (7, "traces/canneal_big2.champsimtrace")
*** Reached end of trace: (4, "traces/canneal_big4.champsimtrace")
*** Reached end of trace: (3, "traces/canneal_big3.champsimtrace")
Heartbeat CPU 2 instructions: 220000001 cycles: 55005209 heartbeat IPC: 4 cumulative IPC: 4 (Simulation time: 02 hr 43 min 46 sec)
Heartbeat CPU 7 instructions: 220000001 cycles: 55005215 heartbeat IPC: 4 cumulative IPC: 4 (Simulation time: 02 hr 43 min 46 sec)
Heartbeat CPU 4 instructions: 220000001 cycles: 55005240 heartbeat IPC: 4 cumulative IPC: 4 (Simulation time: 02 hr 43 min 46 sec)
Heartbeat CPU 3 instructions: 220000001 cycles: 55005262 heartbeat IPC: 4 cumulative IPC: 4 (Simulation time: 02 hr 43 min 46 sec)
*** Reached end of trace: (5, "traces/canneal_big0.champsimtrace")
Heartbeat CPU 5 instructions: 130000029 cycles: 55321187 heartbeat IPC: 2.077 cumulative IPC: 2.065 (Simulation time: 02 hr 44 min 39 sec)
Simulation finished CPU 7 instructions: 100000000 cycles: 25000000 cumulative IPC: 4 (Simulation time: 02 hr 45 min 55 sec)
Simulation finished CPU 4 instructions: 100000000 cycles: 25000000 cumulative IPC: 4 (Simulation time: 02 hr 45 min 55 sec)
Simulation finished CPU 3 instructions: 100000000 cycles: 25000000 cumulative IPC: 4 (Simulation time: 02 hr 45 min 55 sec)
Simulation finished CPU 2 instructions: 100000000 cycles: 25000000 cumulative IPC: 4 (Simulation time: 02 hr 45 min 55 sec)
*** Reached end of trace: (2, "traces/canneal_big2.champsimtrace")
*** Reached end of trace: (7, "traces/canneal_big2.champsimtrace")
*** Reached end of trace: (4, "traces/canneal_big4.champsimtrace")
*** Reached end of trace: (3, "traces/canneal_big3.champsimtrace")
*** Reached end of trace: (0, "traces/canneal_big0.champsimtrace")
*** Reached end of trace: (2, "traces/canneal_big2.champsimtrace")
*** Reached end of trace: (7, "traces/canneal_big2.champsimtrace")
*** Reached end of trace: (4, "traces/canneal_big4.champsimtrace")
*** Reached end of trace: (3, "traces/canneal_big3.champsimtrace")
Heartbeat CPU 2 instructions: 230000001 cycles: 57505209 heartbeat IPC: 4 cumulative IPC: 4 (Simulation time: 02 hr 50 min 47 sec)
Heartbeat CPU 7 instructions: 230000001 cycles: 57505215 heartbeat IPC: 4 cumulative IPC: 4 (Simulation time: 02 hr 50 min 47 sec)
Heartbeat CPU 4 instructions: 230000001 cycles: 57505240 heartbeat IPC: 4 cumulative IPC: 4 (Simulation time: 02 hr 50 min 47 sec)
Heartbeat CPU 3 instructions: 230000001 cycles: 57505262 heartbeat IPC: 4 cumulative IPC: 4 (Simulation time: 02 hr 50 min 47 sec)
*** Reached end of trace: (5, "traces/canneal_big0.champsimtrace")
*** Reached end of trace: (2, "traces/canneal_big2.champsimtrace")
*** Reached end of trace: (7, "traces/canneal_big2.champsimtrace")
*** Reached end of trace: (4, "traces/canneal_big4.champsimtrace")
*** Reached end of trace: (3, "traces/canneal_big3.champsimtrace")
*** Reached end of trace: (0, "traces/canneal_big0.champsimtrace")
Heartbeat CPU 0 instructions: 140000027 cycles: 59622853 heartbeat IPC: 2.125 cumulative IPC: 2.097 (Simulation time: 02 hr 58 min 37 sec)
*** Reached end of trace: (1, "traces/canneal_big1.champsimtrace")
*** Reached end of trace: (2, "traces/canneal_big2.champsimtrace")
*** Reached end of trace: (7, "traces/canneal_big2.champsimtrace")
*** Reached end of trace: (4, "traces/canneal_big4.champsimtrace")
*** Reached end of trace: (3, "traces/canneal_big3.champsimtrace")
Heartbeat CPU 2 instructions: 240000001 cycles: 60005209 heartbeat IPC: 4 cumulative IPC: 4 (Simulation time: 03 hr 00 min 06 sec)
Heartbeat CPU 7 instructions: 240000001 cycles: 60005215 heartbeat IPC: 4 cumulative IPC: 4 (Simulation time: 03 hr 00 min 06 sec)
Heartbeat CPU 4 instructions: 240000001 cycles: 60005240 heartbeat IPC: 4 cumulative IPC: 4 (Simulation time: 03 hr 00 min 06 sec)
Heartbeat CPU 3 instructions: 240000001 cycles: 60005262 heartbeat IPC: 4 cumulative IPC: 4 (Simulation time: 03 hr 00 min 06 sec)
*** Reached end of trace: (5, "traces/canneal_big0.champsimtrace")
Heartbeat CPU 5 instructions: 140000029 cycles: 60149061 heartbeat IPC: 2.071 cumulative IPC: 2.066 (Simulation time: 03 hr 00 min 36 sec)
*** Reached end of trace: (2, "traces/canneal_big2.champsimtrace")
*** Reached end of trace: (7, "traces/canneal_big2.champsimtrace")
*** Reached end of trace: (4, "traces/canneal_big4.champsimtrace")
*** Reached end of trace: (3, "traces/canneal_big3.champsimtrace")
*** Reached end of trace: (6, "traces/canneal_big1.champsimtrace")
*** Reached end of trace: (0, "traces/canneal_big0.champsimtrace")
*** Reached end of trace: (2, "traces/canneal_big2.champsimtrace")
*** Reached end of trace: (7, "traces/canneal_big2.champsimtrace")
*** Reached end of trace: (4, "traces/canneal_big4.champsimtrace")
*** Reached end of trace: (3, "traces/canneal_big3.champsimtrace")
Heartbeat CPU 2 instructions: 250000001 cycles: 62505209 heartbeat IPC: 4 cumulative IPC: 4 (Simulation time: 03 hr 08 min 37 sec)
Heartbeat CPU 7 instructions: 250000001 cycles: 62505215 heartbeat IPC: 4 cumulative IPC: 4 (Simulation time: 03 hr 08 min 37 sec)
Heartbeat CPU 4 instructions: 250000001 cycles: 62505240 heartbeat IPC: 4 cumulative IPC: 4 (Simulation time: 03 hr 08 min 37 sec)
Heartbeat CPU 3 instructions: 250000001 cycles: 62505262 heartbeat IPC: 4 cumulative IPC: 4 (Simulation time: 03 hr 08 min 37 sec)
*** Reached end of trace: (5, "traces/canneal_big0.champsimtrace")
*** Reached end of trace: (2, "traces/canneal_big2.champsimtrace")
*** Reached end of trace: (7, "traces/canneal_big2.champsimtrace")
*** Reached end of trace: (4, "traces/canneal_big4.champsimtrace")
*** Reached end of trace: (3, "traces/canneal_big3.champsimtrace")
*** Reached end of trace: (0, "traces/canneal_big0.champsimtrace")
Heartbeat CPU 0 instructions: 150000027 cycles: 64301390 heartbeat IPC: 2.137 cumulative IPC: 2.103 (Simulation time: 03 hr 14 min 15 sec)
*** Reached end of trace: (5, "traces/canneal_big0.champsimtrace")
Heartbeat CPU 5 instructions: 150000030 cycles: 64996168 heartbeat IPC: 2.063 cumulative IPC: 2.066 (Simulation time: 03 hr 16 min 39 sec)
*** Reached end of trace: (2, "traces/canneal_big2.champsimtrace")
*** Reached end of trace: (7, "traces/canneal_big2.champsimtrace")
*** Reached end of trace: (4, "traces/canneal_big4.champsimtrace")
*** Reached end of trace: (3, "traces/canneal_big3.champsimtrace")
Heartbeat CPU 2 instructions: 260000001 cycles: 65005209 heartbeat IPC: 4 cumulative IPC: 4 (Simulation time: 03 hr 16 min 40 sec)
Heartbeat CPU 7 instructions: 260000001 cycles: 65005215 heartbeat IPC: 4 cumulative IPC: 4 (Simulation time: 03 hr 16 min 40 sec)
Heartbeat CPU 4 instructions: 260000001 cycles: 65005240 heartbeat IPC: 4 cumulative IPC: 4 (Simulation time: 03 hr 16 min 40 sec)
Heartbeat CPU 3 instructions: 260000001 cycles: 65005262 heartbeat IPC: 4 cumulative IPC: 4 (Simulation time: 03 hr 16 min 40 sec)
*** Reached end of trace: (2, "traces/canneal_big2.champsimtrace")
*** Reached end of trace: (7, "traces/canneal_big2.champsimtrace")
*** Reached end of trace: (4, "traces/canneal_big4.champsimtrace")
*** Reached end of trace: (3, "traces/canneal_big3.champsimtrace")
*** Reached end of trace: (0, "traces/canneal_big0.champsimtrace")
*** Reached end of trace: (5, "traces/canneal_big0.champsimtrace")
*** Reached end of trace: (2, "traces/canneal_big2.champsimtrace")
*** Reached end of trace: (7, "traces/canneal_big2.champsimtrace")
*** Reached end of trace: (4, "traces/canneal_big4.champsimtrace")
*** Reached end of trace: (3, "traces/canneal_big3.champsimtrace")
Heartbeat CPU 2 instructions: 270000001 cycles: 67505209 heartbeat IPC: 4 cumulative IPC: 4 (Simulation time: 03 hr 24 min 50 sec)
Heartbeat CPU 7 instructions: 270000001 cycles: 67505215 heartbeat IPC: 4 cumulative IPC: 4 (Simulation time: 03 hr 24 min 50 sec)
Heartbeat CPU 4 instructions: 270000001 cycles: 67505240 heartbeat IPC: 4 cumulative IPC: 4 (Simulation time: 03 hr 24 min 50 sec)
Heartbeat CPU 3 instructions: 270000001 cycles: 67505262 heartbeat IPC: 4 cumulative IPC: 4 (Simulation time: 03 hr 24 min 50 sec)
*** Reached end of trace: (2, "traces/canneal_big2.champsimtrace")
*** Reached end of trace: (7, "traces/canneal_big2.champsimtrace")
*** Reached end of trace: (4, "traces/canneal_big4.champsimtrace")
*** Reached end of trace: (3, "traces/canneal_big3.champsimtrace")
*** Reached end of trace: (0, "traces/canneal_big0.champsimtrace")
Heartbeat CPU 0 instructions: 160000030 cycles: 68923161 heartbeat IPC: 2.164 cumulative IPC: 2.11 (Simulation time: 03 hr 29 min 09 sec)
*** Reached end of trace: (5, "traces/canneal_big0.champsimtrace")
Heartbeat CPU 5 instructions: 160000030 cycles: 69796014 heartbeat IPC: 2.083 cumulative IPC: 2.068 (Simulation time: 03 hr 31 min 44 sec)
*** Reached end of trace: (2, "traces/canneal_big2.champsimtrace")
*** Reached end of trace: (7, "traces/canneal_big2.champsimtrace")
*** Reached end of trace: (4, "traces/canneal_big4.champsimtrace")
*** Reached end of trace: (3, "traces/canneal_big3.champsimtrace")
Heartbeat CPU 2 instructions: 280000001 cycles: 70005209 heartbeat IPC: 4 cumulative IPC: 4 (Simulation time: 03 hr 32 min 22 sec)
Heartbeat CPU 7 instructions: 280000001 cycles: 70005215 heartbeat IPC: 4 cumulative IPC: 4 (Simulation time: 03 hr 32 min 22 sec)
Heartbeat CPU 4 instructions: 280000001 cycles: 70005240 heartbeat IPC: 4 cumulative IPC: 4 (Simulation time: 03 hr 32 min 22 sec)
Heartbeat CPU 3 instructions: 280000001 cycles: 70005262 heartbeat IPC: 4 cumulative IPC: 4 (Simulation time: 03 hr 32 min 22 sec)
*** Reached end of trace: (0, "traces/canneal_big0.champsimtrace")
*** Reached end of trace: (2, "traces/canneal_big2.champsimtrace")
*** Reached end of trace: (7, "traces/canneal_big2.champsimtrace")
*** Reached end of trace: (4, "traces/canneal_big4.champsimtrace")
*** Reached end of trace: (3, "traces/canneal_big3.champsimtrace")
*** Reached end of trace: (5, "traces/canneal_big0.champsimtrace")
*** Reached end of trace: (2, "traces/canneal_big2.champsimtrace")
*** Reached end of trace: (7, "traces/canneal_big2.champsimtrace")
*** Reached end of trace: (4, "traces/canneal_big4.champsimtrace")
*** Reached end of trace: (3, "traces/canneal_big3.champsimtrace")
Heartbeat CPU 2 instructions: 290000001 cycles: 72505209 heartbeat IPC: 4 cumulative IPC: 4 (Simulation time: 03 hr 40 min 52 sec)
Heartbeat CPU 7 instructions: 290000001 cycles: 72505215 heartbeat IPC: 4 cumulative IPC: 4 (Simulation time: 03 hr 40 min 52 sec)
Heartbeat CPU 4 instructions: 290000001 cycles: 72505240 heartbeat IPC: 4 cumulative IPC: 4 (Simulation time: 03 hr 40 min 52 sec)
Heartbeat CPU 3 instructions: 290000001 cycles: 72505262 heartbeat IPC: 4 cumulative IPC: 4 (Simulation time: 03 hr 40 min 52 sec)
*** Reached end of trace: (0, "traces/canneal_big0.champsimtrace")
Heartbeat CPU 0 instructions: 170000033 cycles: 73568592 heartbeat IPC: 2.153 cumulative IPC: 2.115 (Simulation time: 03 hr 44 min 10 sec)
*** Reached end of trace: (2, "traces/canneal_big2.champsimtrace")
*** Reached end of trace: (7, "traces/canneal_big2.champsimtrace")
*** Reached end of trace: (4, "traces/canneal_big4.champsimtrace")
*** Reached end of trace: (3, "traces/canneal_big3.champsimtrace")
*** Reached end of trace: (5, "traces/canneal_big0.champsimtrace")
Heartbeat CPU 5 instructions: 170000033 cycles: 74542340 heartbeat IPC: 2.107 cumulative IPC: 2.072 (Simulation time: 03 hr 47 min 01 sec)
*** Reached end of trace: (2, "traces/canneal_big2.champsimtrace")
*** Reached end of trace: (7, "traces/canneal_big2.champsimtrace")
*** Reached end of trace: (4, "traces/canneal_big4.champsimtrace")
*** Reached end of trace: (3, "traces/canneal_big3.champsimtrace")
Heartbeat CPU 2 instructions: 300000001 cycles: 75005209 heartbeat IPC: 4 cumulative IPC: 4 (Simulation time: 03 hr 48 min 32 sec)
Heartbeat CPU 7 instructions: 300000001 cycles: 75005215 heartbeat IPC: 4 cumulative IPC: 4 (Simulation time: 03 hr 48 min 32 sec)
Heartbeat CPU 4 instructions: 300000001 cycles: 75005240 heartbeat IPC: 4 cumulative IPC: 4 (Simulation time: 03 hr 48 min 32 sec)
Heartbeat CPU 3 instructions: 300000001 cycles: 75005262 heartbeat IPC: 4 cumulative IPC: 4 (Simulation time: 03 hr 48 min 32 sec)
*** Reached end of trace: (0, "traces/canneal_big0.champsimtrace")
*** Reached end of trace: (2, "traces/canneal_big2.champsimtrace")
*** Reached end of trace: (7, "traces/canneal_big2.champsimtrace")
*** Reached end of trace: (4, "traces/canneal_big4.champsimtrace")
*** Reached end of trace: (3, "traces/canneal_big3.champsimtrace")
*** Reached end of trace: (5, "traces/canneal_big0.champsimtrace")
*** Reached end of trace: (2, "traces/canneal_big2.champsimtrace")
*** Reached end of trace: (7, "traces/canneal_big2.champsimtrace")
*** Reached end of trace: (4, "traces/canneal_big4.champsimtrace")
*** Reached end of trace: (3, "traces/canneal_big3.champsimtrace")
Heartbeat CPU 2 instructions: 310000001 cycles: 77505209 heartbeat IPC: 4 cumulative IPC: 4 (Simulation time: 03 hr 56 min 30 sec)
Heartbeat CPU 7 instructions: 310000001 cycles: 77505215 heartbeat IPC: 4 cumulative IPC: 4 (Simulation time: 03 hr 56 min 30 sec)
Heartbeat CPU 4 instructions: 310000001 cycles: 77505240 heartbeat IPC: 4 cumulative IPC: 4 (Simulation time: 03 hr 56 min 30 sec)
Heartbeat CPU 3 instructions: 310000001 cycles: 77505262 heartbeat IPC: 4 cumulative IPC: 4 (Simulation time: 03 hr 56 min 30 sec)
Simulation finished CPU 0 instructions: 100000000 cycles: 47162226 cumulative IPC: 2.12 (Simulation time: 03 hr 57 min 49 sec)
*** Reached end of trace: (0, "traces/canneal_big0.champsimtrace")
Heartbeat CPU 0 instructions: 180000036 cycles: 78184915 heartbeat IPC: 2.166 cumulative IPC: 2.12 (Simulation time: 03 hr 58 min 21 sec)
*** Reached end of trace: (2, "traces/canneal_big2.champsimtrace")
*** Reached end of trace: (7, "traces/canneal_big2.champsimtrace")
*** Reached end of trace: (4, "traces/canneal_big4.champsimtrace")
*** Reached end of trace: (3, "traces/canneal_big3.champsimtrace")
Simulation finished CPU 5 instructions: 100000000 cycles: 48153188 cumulative IPC: 2.077 (Simulation time: 04 hr 00 min 18 sec)
*** Reached end of trace: (5, "traces/canneal_big0.champsimtrace")
Heartbeat CPU 5 instructions: 180000036 cycles: 79281266 heartbeat IPC: 2.11 cumulative IPC: 2.076 (Simulation time: 04 hr 01 min 07 sec)
*** Reached end of trace: (2, "traces/canneal_big2.champsimtrace")
*** Reached end of trace: (7, "traces/canneal_big2.champsimtrace")
*** Reached end of trace: (4, "traces/canneal_big4.champsimtrace")
*** Reached end of trace: (3, "traces/canneal_big3.champsimtrace")
Heartbeat CPU 2 instructions: 320000001 cycles: 80005209 heartbeat IPC: 4 cumulative IPC: 4 (Simulation time: 04 hr 03 min 03 sec)
Heartbeat CPU 7 instructions: 320000001 cycles: 80005215 heartbeat IPC: 4 cumulative IPC: 4 (Simulation time: 04 hr 03 min 03 sec)
Heartbeat CPU 4 instructions: 320000001 cycles: 80005240 heartbeat IPC: 4 cumulative IPC: 4 (Simulation time: 04 hr 03 min 03 sec)
Heartbeat CPU 3 instructions: 320000001 cycles: 80005262 heartbeat IPC: 4 cumulative IPC: 4 (Simulation time: 04 hr 03 min 03 sec)
*** Reached end of trace: (0, "traces/canneal_big0.champsimtrace")
*** Reached end of trace: (2, "traces/canneal_big2.champsimtrace")
*** Reached end of trace: (7, "traces/canneal_big2.champsimtrace")
*** Reached end of trace: (4, "traces/canneal_big4.champsimtrace")
*** Reached end of trace: (3, "traces/canneal_big3.champsimtrace")
*** Reached end of trace: (5, "traces/canneal_big0.champsimtrace")
*** Reached end of trace: (2, "traces/canneal_big2.champsimtrace")
*** Reached end of trace: (7, "traces/canneal_big2.champsimtrace")
*** Reached end of trace: (4, "traces/canneal_big4.champsimtrace")
*** Reached end of trace: (3, "traces/canneal_big3.champsimtrace")
Heartbeat CPU 2 instructions: 330000001 cycles: 82505209 heartbeat IPC: 4 cumulative IPC: 4 (Simulation time: 04 hr 10 min 16 sec)
Heartbeat CPU 7 instructions: 330000001 cycles: 82505215 heartbeat IPC: 4 cumulative IPC: 4 (Simulation time: 04 hr 10 min 16 sec)
Heartbeat CPU 4 instructions: 330000001 cycles: 82505240 heartbeat IPC: 4 cumulative IPC: 4 (Simulation time: 04 hr 10 min 16 sec)
Heartbeat CPU 3 instructions: 330000001 cycles: 82505262 heartbeat IPC: 4 cumulative IPC: 4 (Simulation time: 04 hr 10 min 16 sec)
*** Reached end of trace: (0, "traces/canneal_big0.champsimtrace")
Heartbeat CPU 0 instructions: 190000037 cycles: 82824117 heartbeat IPC: 2.156 cumulative IPC: 2.123 (Simulation time: 04 hr 11 min 09 sec)
*** Reached end of trace: (2, "traces/canneal_big2.champsimtrace")
*** Reached end of trace: (7, "traces/canneal_big2.champsimtrace")
*** Reached end of trace: (4, "traces/canneal_big4.champsimtrace")
*** Reached end of trace: (3, "traces/canneal_big3.champsimtrace")
*** Reached end of trace: (5, "traces/canneal_big0.champsimtrace")
Heartbeat CPU 5 instructions: 190000037 cycles: 83999018 heartbeat IPC: 2.12 cumulative IPC: 2.08 (Simulation time: 04 hr 14 min 21 sec)
*** Reached end of trace: (2, "traces/canneal_big2.champsimtrace")
*** Reached end of trace: (7, "traces/canneal_big2.champsimtrace")
*** Reached end of trace: (4, "traces/canneal_big4.champsimtrace")
*** Reached end of trace: (3, "traces/canneal_big3.champsimtrace")
Heartbeat CPU 2 instructions: 340000001 cycles: 85005209 heartbeat IPC: 4 cumulative IPC: 4 (Simulation time: 04 hr 16 min 50 sec)
Heartbeat CPU 7 instructions: 340000001 cycles: 85005215 heartbeat IPC: 4 cumulative IPC: 4 (Simulation time: 04 hr 16 min 50 sec)
Heartbeat CPU 4 instructions: 340000001 cycles: 85005240 heartbeat IPC: 4 cumulative IPC: 4 (Simulation time: 04 hr 16 min 50 sec)
Heartbeat CPU 3 instructions: 340000001 cycles: 85005262 heartbeat IPC: 4 cumulative IPC: 4 (Simulation time: 04 hr 16 min 50 sec)
*** Reached end of trace: (0, "traces/canneal_big0.champsimtrace")
*** Reached end of trace: (2, "traces/canneal_big2.champsimtrace")
*** Reached end of trace: (7, "traces/canneal_big2.champsimtrace")
*** Reached end of trace: (4, "traces/canneal_big4.champsimtrace")
*** Reached end of trace: (3, "traces/canneal_big3.champsimtrace")
*** Reached end of trace: (5, "traces/canneal_big0.champsimtrace")
*** Reached end of trace: (0, "traces/canneal_big0.champsimtrace")
Heartbeat CPU 0 instructions: 200000040 cycles: 87470491 heartbeat IPC: 2.152 cumulative IPC: 2.125 (Simulation time: 04 hr 23 min 16 sec)
*** Reached end of trace: (2, "traces/canneal_big2.champsimtrace")
*** Reached end of trace: (7, "traces/canneal_big2.champsimtrace")
*** Reached end of trace: (4, "traces/canneal_big4.champsimtrace")
*** Reached end of trace: (3, "traces/canneal_big3.champsimtrace")
Heartbeat CPU 2 instructions: 350000001 cycles: 87505209 heartbeat IPC: 4 cumulative IPC: 4 (Simulation time: 04 hr 23 min 21 sec)
Heartbeat CPU 7 instructions: 350000001 cycles: 87505215 heartbeat IPC: 4 cumulative IPC: 4 (Simulation time: 04 hr 23 min 21 sec)
Heartbeat CPU 4 instructions: 350000001 cycles: 87505240 heartbeat IPC: 4 cumulative IPC: 4 (Simulation time: 04 hr 23 min 21 sec)
Heartbeat CPU 3 instructions: 350000001 cycles: 87505262 heartbeat IPC: 4 cumulative IPC: 4 (Simulation time: 04 hr 23 min 21 sec)
*** Reached end of trace: (5, "traces/canneal_big0.champsimtrace")
Heartbeat CPU 5 instructions: 200000037 cycles: 88736815 heartbeat IPC: 2.111 cumulative IPC: 2.082 (Simulation time: 04 hr 26 min 58 sec)
*** Reached end of trace: (2, "traces/canneal_big2.champsimtrace")
*** Reached end of trace: (7, "traces/canneal_big2.champsimtrace")
*** Reached end of trace: (4, "traces/canneal_big4.champsimtrace")
*** Reached end of trace: (3, "traces/canneal_big3.champsimtrace")
*** Reached end of trace: (0, "traces/canneal_big0.champsimtrace")
*** Reached end of trace: (2, "traces/canneal_big2.champsimtrace")
*** Reached end of trace: (7, "traces/canneal_big2.champsimtrace")
*** Reached end of trace: (4, "traces/canneal_big4.champsimtrace")
*** Reached end of trace: (3, "traces/canneal_big3.champsimtrace")
Heartbeat CPU 2 instructions: 360000001 cycles: 90005209 heartbeat IPC: 4 cumulative IPC: 4 (Simulation time: 04 hr 30 min 40 sec)
Heartbeat CPU 7 instructions: 360000001 cycles: 90005215 heartbeat IPC: 4 cumulative IPC: 4 (Simulation time: 04 hr 30 min 40 sec)
Heartbeat CPU 4 instructions: 360000001 cycles: 90005240 heartbeat IPC: 4 cumulative IPC: 4 (Simulation time: 04 hr 30 min 40 sec)
Heartbeat CPU 3 instructions: 360000001 cycles: 90005262 heartbeat IPC: 4 cumulative IPC: 4 (Simulation time: 04 hr 30 min 40 sec)
*** Reached end of trace: (1, "traces/canneal_big1.champsimtrace")
Heartbeat CPU 1 instructions: 60000010 cycles: 90838149 heartbeat IPC: 0.166 cumulative IPC: 0.1615 (Simulation time: 04 hr 33 min 05 sec)
*** Reached end of trace: (5, "traces/canneal_big0.champsimtrace")
*** Reached end of trace: (2, "traces/canneal_big2.champsimtrace")
*** Reached end of trace: (7, "traces/canneal_big2.champsimtrace")
*** Reached end of trace: (4, "traces/canneal_big4.champsimtrace")
*** Reached end of trace: (3, "traces/canneal_big3.champsimtrace")
*** Reached end of trace: (0, "traces/canneal_big0.champsimtrace")
Heartbeat CPU 0 instructions: 210000040 cycles: 92130697 heartbeat IPC: 2.146 cumulative IPC: 2.127 (Simulation time: 04 hr 36 min 39 sec)
*** Reached end of trace: (2, "traces/canneal_big2.champsimtrace")
*** Reached end of trace: (7, "traces/canneal_big2.champsimtrace")
*** Reached end of trace: (4, "traces/canneal_big4.champsimtrace")
*** Reached end of trace: (3, "traces/canneal_big3.champsimtrace")
Heartbeat CPU 2 instructions: 370000001 cycles: 92505209 heartbeat IPC: 4 cumulative IPC: 4 (Simulation time: 04 hr 37 min 39 sec)
Heartbeat CPU 7 instructions: 370000001 cycles: 92505215 heartbeat IPC: 4 cumulative IPC: 4 (Simulation time: 04 hr 37 min 39 sec)
Heartbeat CPU 4 instructions: 370000001 cycles: 92505240 heartbeat IPC: 4 cumulative IPC: 4 (Simulation time: 04 hr 37 min 39 sec)
Heartbeat CPU 3 instructions: 370000001 cycles: 92505262 heartbeat IPC: 4 cumulative IPC: 4 (Simulation time: 04 hr 37 min 39 sec)
*** Reached end of trace: (6, "traces/canneal_big1.champsimtrace")
Heartbeat CPU 6 instructions: 60000010 cycles: 92869198 heartbeat IPC: 0.1611 cumulative IPC: 0.1611 (Simulation time: 04 hr 38 min 31 sec)
*** Reached end of trace: (5, "traces/canneal_big0.champsimtrace")
Heartbeat CPU 5 instructions: 210000040 cycles: 93450231 heartbeat IPC: 2.122 cumulative IPC: 2.085 (Simulation time: 04 hr 39 min 57 sec)
*** Reached end of trace: (2, "traces/canneal_big2.champsimtrace")
*** Reached end of trace: (7, "traces/canneal_big2.champsimtrace")
*** Reached end of trace: (4, "traces/canneal_big4.champsimtrace")
*** Reached end of trace: (3, "traces/canneal_big3.champsimtrace")
*** Reached end of trace: (0, "traces/canneal_big0.champsimtrace")
*** Reached end of trace: (2, "traces/canneal_big2.champsimtrace")
*** Reached end of trace: (7, "traces/canneal_big2.champsimtrace")
*** Reached end of trace: (4, "traces/canneal_big4.champsimtrace")
*** Reached end of trace: (3, "traces/canneal_big3.champsimtrace")
Heartbeat CPU 2 instructions: 380000001 cycles: 95005209 heartbeat IPC: 4 cumulative IPC: 4 (Simulation time: 04 hr 44 min 42 sec)
Heartbeat CPU 7 instructions: 380000001 cycles: 95005215 heartbeat IPC: 4 cumulative IPC: 4 (Simulation time: 04 hr 44 min 42 sec)
Heartbeat CPU 4 instructions: 380000001 cycles: 95005240 heartbeat IPC: 4 cumulative IPC: 4 (Simulation time: 04 hr 44 min 42 sec)
Heartbeat CPU 3 instructions: 380000001 cycles: 95005262 heartbeat IPC: 4 cumulative IPC: 4 (Simulation time: 04 hr 44 min 42 sec)
*** Reached end of trace: (5, "traces/canneal_big0.champsimtrace")
*** Reached end of trace: (2, "traces/canneal_big2.champsimtrace")
*** Reached end of trace: (7, "traces/canneal_big2.champsimtrace")
*** Reached end of trace: (4, "traces/canneal_big4.champsimtrace")
*** Reached end of trace: (3, "traces/canneal_big3.champsimtrace")
*** Reached end of trace: (0, "traces/canneal_big0.champsimtrace")
Heartbeat CPU 0 instructions: 220000041 cycles: 96839174 heartbeat IPC: 2.124 cumulative IPC: 2.127 (Simulation time: 04 hr 50 min 54 sec)
*** Reached end of trace: (2, "traces/canneal_big2.champsimtrace")
*** Reached end of trace: (7, "traces/canneal_big2.champsimtrace")
*** Reached end of trace: (4, "traces/canneal_big4.champsimtrace")
*** Reached end of trace: (3, "traces/canneal_big3.champsimtrace")
Heartbeat CPU 2 instructions: 390000001 cycles: 97505209 heartbeat IPC: 4 cumulative IPC: 4 (Simulation time: 04 hr 53 min 00 sec)
Heartbeat CPU 7 instructions: 390000001 cycles: 97505215 heartbeat IPC: 4 cumulative IPC: 4 (Simulation time: 04 hr 53 min 00 sec)
Heartbeat CPU 4 instructions: 390000001 cycles: 97505240 heartbeat IPC: 4 cumulative IPC: 4 (Simulation time: 04 hr 53 min 00 sec)
Heartbeat CPU 3 instructions: 390000001 cycles: 97505262 heartbeat IPC: 4 cumulative IPC: 4 (Simulation time: 04 hr 53 min 00 sec)
*** Reached end of trace: (5, "traces/canneal_big0.champsimtrace")
Heartbeat CPU 5 instructions: 220000043 cycles: 98187359 heartbeat IPC: 2.111 cumulative IPC: 2.087 (Simulation time: 04 hr 55 min 02 sec)
*** Reached end of trace: (2, "traces/canneal_big2.champsimtrace")
*** Reached end of trace: (7, "traces/canneal_big2.champsimtrace")
*** Reached end of trace: (4, "traces/canneal_big4.champsimtrace")
*** Reached end of trace: (3, "traces/canneal_big3.champsimtrace")
*** Reached end of trace: (0, "traces/canneal_big0.champsimtrace")
*** Reached end of trace: (2, "traces/canneal_big2.champsimtrace")
*** Reached end of trace: (7, "traces/canneal_big2.champsimtrace")
*** Reached end of trace: (4, "traces/canneal_big4.champsimtrace")
*** Reached end of trace: (3, "traces/canneal_big3.champsimtrace")
Heartbeat CPU 2 instructions: 400000001 cycles: 100005209 heartbeat IPC: 4 cumulative IPC: 4 (Simulation time: 05 hr 00 min 55 sec)
Heartbeat CPU 7 instructions: 400000001 cycles: 100005215 heartbeat IPC: 4 cumulative IPC: 4 (Simulation time: 05 hr 00 min 55 sec)
Heartbeat CPU 4 instructions: 400000001 cycles: 100005240 heartbeat IPC: 4 cumulative IPC: 4 (Simulation time: 05 hr 00 min 55 sec)
Heartbeat CPU 3 instructions: 400000001 cycles: 100005262 heartbeat IPC: 4 cumulative IPC: 4 (Simulation time: 05 hr 00 min 55 sec)
*** Reached end of trace: (5, "traces/canneal_big0.champsimtrace")
*** Reached end of trace: (2, "traces/canneal_big2.champsimtrace")
*** Reached end of trace: (7, "traces/canneal_big2.champsimtrace")
*** Reached end of trace: (4, "traces/canneal_big4.champsimtrace")
*** Reached end of trace: (3, "traces/canneal_big3.champsimtrace")
*** Reached end of trace: (0, "traces/canneal_big0.champsimtrace")
Heartbeat CPU 0 instructions: 230000044 cycles: 101521810 heartbeat IPC: 2.136 cumulative IPC: 2.127 (Simulation time: 05 hr 05 min 40 sec)
*** Reached end of trace: (2, "traces/canneal_big2.champsimtrace")
*** Reached end of trace: (7, "traces/canneal_big2.champsimtrace")
*** Reached end of trace: (4, "traces/canneal_big4.champsimtrace")
*** Reached end of trace: (3, "traces/canneal_big3.champsimtrace")
Heartbeat CPU 2 instructions: 410000001 cycles: 102505209 heartbeat IPC: 4 cumulative IPC: 4 (Simulation time: 05 hr 08 min 47 sec)
Heartbeat CPU 7 instructions: 410000001 cycles: 102505215 heartbeat IPC: 4 cumulative IPC: 4 (Simulation time: 05 hr 08 min 47 sec)
Heartbeat CPU 4 instructions: 410000001 cycles: 102505240 heartbeat IPC: 4 cumulative IPC: 4 (Simulation time: 05 hr 08 min 47 sec)
Heartbeat CPU 3 instructions: 410000001 cycles: 102505262 heartbeat IPC: 4 cumulative IPC: 4 (Simulation time: 05 hr 08 min 47 sec)
*** Reached end of trace: (5, "traces/canneal_big0.champsimtrace")
Heartbeat CPU 5 instructions: 230000044 cycles: 102924746 heartbeat IPC: 2.111 cumulative IPC: 2.089 (Simulation time: 05 hr 10 min 07 sec)
*** Reached end of trace: (2, "traces/canneal_big2.champsimtrace")
*** Reached end of trace: (7, "traces/canneal_big2.champsimtrace")
*** Reached end of trace: (4, "traces/canneal_big4.champsimtrace")
*** Reached end of trace: (3, "traces/canneal_big3.champsimtrace")
*** Reached end of trace: (0, "traces/canneal_big0.champsimtrace")
*** Reached end of trace: (2, "traces/canneal_big2.champsimtrace")
*** Reached end of trace: (7, "traces/canneal_big2.champsimtrace")
*** Reached end of trace: (4, "traces/canneal_big4.champsimtrace")
*** Reached end of trace: (3, "traces/canneal_big3.champsimtrace")
Heartbeat CPU 2 instructions: 420000001 cycles: 105005209 heartbeat IPC: 4 cumulative IPC: 4 (Simulation time: 05 hr 16 min 20 sec)
Heartbeat CPU 7 instructions: 420000001 cycles: 105005215 heartbeat IPC: 4 cumulative IPC: 4 (Simulation time: 05 hr 16 min 20 sec)
Heartbeat CPU 4 instructions: 420000001 cycles: 105005240 heartbeat IPC: 4 cumulative IPC: 4 (Simulation time: 05 hr 16 min 20 sec)
Heartbeat CPU 3 instructions: 420000001 cycles: 105005262 heartbeat IPC: 4 cumulative IPC: 4 (Simulation time: 05 hr 16 min 20 sec)
*** Reached end of trace: (5, "traces/canneal_big0.champsimtrace")
*** Reached end of trace: (0, "traces/canneal_big0.champsimtrace")
Heartbeat CPU 0 instructions: 240000044 cycles: 106211944 heartbeat IPC: 2.132 cumulative IPC: 2.128 (Simulation time: 05 hr 19 min 50 sec)
*** Reached end of trace: (2, "traces/canneal_big2.champsimtrace")
*** Reached end of trace: (7, "traces/canneal_big2.champsimtrace")
*** Reached end of trace: (4, "traces/canneal_big4.champsimtrace")
*** Reached end of trace: (3, "traces/canneal_big3.champsimtrace")
*** Reached end of trace: (2, "traces/canneal_big2.champsimtrace")
*** Reached end of trace: (7, "traces/canneal_big2.champsimtrace")
*** Reached end of trace: (4, "traces/canneal_big4.champsimtrace")
*** Reached end of trace: (3, "traces/canneal_big3.champsimtrace")
Heartbeat CPU 2 instructions: 430000001 cycles: 107505209 heartbeat IPC: 4 cumulative IPC: 4 (Simulation time: 05 hr 23 min 10 sec)
Heartbeat CPU 7 instructions: 430000001 cycles: 107505215 heartbeat IPC: 4 cumulative IPC: 4 (Simulation time: 05 hr 23 min 10 sec)
Heartbeat CPU 4 instructions: 430000001 cycles: 107505240 heartbeat IPC: 4 cumulative IPC: 4 (Simulation time: 05 hr 23 min 10 sec)
Heartbeat CPU 3 instructions: 430000001 cycles: 107505262 heartbeat IPC: 4 cumulative IPC: 4 (Simulation time: 05 hr 23 min 10 sec)
*** Reached end of trace: (5, "traces/canneal_big0.champsimtrace")
Heartbeat CPU 5 instructions: 240000044 cycles: 107677273 heartbeat IPC: 2.104 cumulative IPC: 2.09 (Simulation time: 05 hr 23 min 34 sec)
*** Reached end of trace: (0, "traces/canneal_big0.champsimtrace")
*** Reached end of trace: (2, "traces/canneal_big2.champsimtrace")
*** Reached end of trace: (7, "traces/canneal_big2.champsimtrace")
*** Reached end of trace: (4, "traces/canneal_big4.champsimtrace")
*** Reached end of trace: (3, "traces/canneal_big3.champsimtrace")
*** Reached end of trace: (2, "traces/canneal_big2.champsimtrace")
*** Reached end of trace: (7, "traces/canneal_big2.champsimtrace")
*** Reached end of trace: (4, "traces/canneal_big4.champsimtrace")
*** Reached end of trace: (3, "traces/canneal_big3.champsimtrace")
Heartbeat CPU 2 instructions: 440000001 cycles: 110005209 heartbeat IPC: 4 cumulative IPC: 4 (Simulation time: 05 hr 30 min 19 sec)
Heartbeat CPU 7 instructions: 440000001 cycles: 110005215 heartbeat IPC: 4 cumulative IPC: 4 (Simulation time: 05 hr 30 min 19 sec)
Heartbeat CPU 4 instructions: 440000001 cycles: 110005240 heartbeat IPC: 4 cumulative IPC: 4 (Simulation time: 05 hr 30 min 19 sec)
Heartbeat CPU 3 instructions: 440000001 cycles: 110005262 heartbeat IPC: 4 cumulative IPC: 4 (Simulation time: 05 hr 30 min 19 sec)
*** Reached end of trace: (5, "traces/canneal_big0.champsimtrace")
*** Reached end of trace: (0, "traces/canneal_big0.champsimtrace")
Heartbeat CPU 0 instructions: 250000045 cycles: 110902656 heartbeat IPC: 2.132 cumulative IPC: 2.128 (Simulation time: 05 hr 33 min 09 sec)
*** Reached end of trace: (2, "traces/canneal_big2.champsimtrace")
*** Reached end of trace: (7, "traces/canneal_big2.champsimtrace")
*** Reached end of trace: (4, "traces/canneal_big4.champsimtrace")
*** Reached end of trace: (3, "traces/canneal_big3.champsimtrace")
*** Reached end of trace: (5, "traces/canneal_big0.champsimtrace")
Heartbeat CPU 5 instructions: 250000047 cycles: 112400304 heartbeat IPC: 2.117 cumulative IPC: 2.091 (Simulation time: 05 hr 38 min 24 sec)
*** Reached end of trace: (2, "traces/canneal_big2.champsimtrace")
*** Reached end of trace: (7, "traces/canneal_big2.champsimtrace")
*** Reached end of trace: (4, "traces/canneal_big4.champsimtrace")
*** Reached end of trace: (3, "traces/canneal_big3.champsimtrace")
Heartbeat CPU 2 instructions: 450000001 cycles: 112505209 heartbeat IPC: 4 cumulative IPC: 4 (Simulation time: 05 hr 38 min 46 sec)
Heartbeat CPU 7 instructions: 450000001 cycles: 112505215 heartbeat IPC: 4 cumulative IPC: 4 (Simulation time: 05 hr 38 min 46 sec)
Heartbeat CPU 4 instructions: 450000001 cycles: 112505240 heartbeat IPC: 4 cumulative IPC: 4 (Simulation time: 05 hr 38 min 46 sec)
Heartbeat CPU 3 instructions: 450000001 cycles: 112505262 heartbeat IPC: 4 cumulative IPC: 4 (Simulation time: 05 hr 38 min 46 sec)
*** Reached end of trace: (0, "traces/canneal_big0.champsimtrace")
*** Reached end of trace: (2, "traces/canneal_big2.champsimtrace")
*** Reached end of trace: (7, "traces/canneal_big2.champsimtrace")
*** Reached end of trace: (4, "traces/canneal_big4.champsimtrace")
*** Reached end of trace: (3, "traces/canneal_big3.champsimtrace")
*** Reached end of trace: (5, "traces/canneal_big0.champsimtrace")
*** Reached end of trace: (2, "traces/canneal_big2.champsimtrace")
*** Reached end of trace: (7, "traces/canneal_big2.champsimtrace")
*** Reached end of trace: (4, "traces/canneal_big4.champsimtrace")
*** Reached end of trace: (3, "traces/canneal_big3.champsimtrace")
Heartbeat CPU 2 instructions: 460000001 cycles: 115005209 heartbeat IPC: 4 cumulative IPC: 4 (Simulation time: 05 hr 46 min 57 sec)
Heartbeat CPU 7 instructions: 460000001 cycles: 115005215 heartbeat IPC: 4 cumulative IPC: 4 (Simulation time: 05 hr 46 min 57 sec)
Heartbeat CPU 4 instructions: 460000001 cycles: 115005240 heartbeat IPC: 4 cumulative IPC: 4 (Simulation time: 05 hr 46 min 57 sec)
Heartbeat CPU 3 instructions: 460000001 cycles: 115005262 heartbeat IPC: 4 cumulative IPC: 4 (Simulation time: 05 hr 46 min 57 sec)
*** Reached end of trace: (0, "traces/canneal_big0.champsimtrace")
Heartbeat CPU 0 instructions: 260000048 cycles: 115606990 heartbeat IPC: 2.126 cumulative IPC: 2.128 (Simulation time: 05 hr 48 min 52 sec)
*** Reached end of trace: (2, "traces/canneal_big2.champsimtrace")
*** Reached end of trace: (7, "traces/canneal_big2.champsimtrace")
*** Reached end of trace: (4, "traces/canneal_big4.champsimtrace")
*** Reached end of trace: (3, "traces/canneal_big3.champsimtrace")
*** Reached end of trace: (5, "traces/canneal_big0.champsimtrace")
Heartbeat CPU 5 instructions: 260000050 cycles: 117136697 heartbeat IPC: 2.111 cumulative IPC: 2.092 (Simulation time: 05 hr 54 min 01 sec)
*** Reached end of trace: (2, "traces/canneal_big2.champsimtrace")
*** Reached end of trace: (7, "traces/canneal_big2.champsimtrace")
*** Reached end of trace: (4, "traces/canneal_big4.champsimtrace")
*** Reached end of trace: (3, "traces/canneal_big3.champsimtrace")
Heartbeat CPU 2 instructions: 470000001 cycles: 117505209 heartbeat IPC: 4 cumulative IPC: 4 (Simulation time: 05 hr 55 min 27 sec)
Heartbeat CPU 7 instructions: 470000001 cycles: 117505215 heartbeat IPC: 4 cumulative IPC: 4 (Simulation time: 05 hr 55 min 27 sec)
Heartbeat CPU 4 instructions: 470000001 cycles: 117505240 heartbeat IPC: 4 cumulative IPC: 4 (Simulation time: 05 hr 55 min 27 sec)
Heartbeat CPU 3 instructions: 470000001 cycles: 117505262 heartbeat IPC: 4 cumulative IPC: 4 (Simulation time: 05 hr 55 min 27 sec)
*** Reached end of trace: (0, "traces/canneal_big0.champsimtrace")
*** Reached end of trace: (2, "traces/canneal_big2.champsimtrace")
*** Reached end of trace: (7, "traces/canneal_big2.champsimtrace")
*** Reached end of trace: (4, "traces/canneal_big4.champsimtrace")
*** Reached end of trace: (3, "traces/canneal_big3.champsimtrace")
*** Reached end of trace: (5, "traces/canneal_big0.champsimtrace")
*** Reached end of trace: (2, "traces/canneal_big2.champsimtrace")
*** Reached end of trace: (7, "traces/canneal_big2.champsimtrace")
*** Reached end of trace: (4, "traces/canneal_big4.champsimtrace")
*** Reached end of trace: (3, "traces/canneal_big3.champsimtrace")
Heartbeat CPU 2 instructions: 480000001 cycles: 120005209 heartbeat IPC: 4 cumulative IPC: 4 (Simulation time: 06 hr 03 min 50 sec)
Heartbeat CPU 7 instructions: 480000001 cycles: 120005215 heartbeat IPC: 4 cumulative IPC: 4 (Simulation time: 06 hr 03 min 50 sec)
Heartbeat CPU 4 instructions: 480000001 cycles: 120005240 heartbeat IPC: 4 cumulative IPC: 4 (Simulation time: 06 hr 03 min 50 sec)
Heartbeat CPU 3 instructions: 480000001 cycles: 120005262 heartbeat IPC: 4 cumulative IPC: 4 (Simulation time: 06 hr 03 min 50 sec)
*** Reached end of trace: (0, "traces/canneal_big0.champsimtrace")
Heartbeat CPU 0 instructions: 270000051 cycles: 120328798 heartbeat IPC: 2.118 cumulative IPC: 2.127 (Simulation time: 06 hr 04 min 37 sec)
*** Reached end of trace: (2, "traces/canneal_big2.champsimtrace")
*** Reached end of trace: (7, "traces/canneal_big2.champsimtrace")
*** Reached end of trace: (4, "traces/canneal_big4.champsimtrace")
*** Reached end of trace: (3, "traces/canneal_big3.champsimtrace")
*** Reached end of trace: (5, "traces/canneal_big0.champsimtrace")
Heartbeat CPU 5 instructions: 270000051 cycles: 121871624 heartbeat IPC: 2.112 cumulative IPC: 2.093 (Simulation time: 06 hr 09 min 15 sec)
*** Reached end of trace: (1, "traces/canneal_big1.champsimtrace")
*** Reached end of trace: (2, "traces/canneal_big2.champsimtrace")
*** Reached end of trace: (7, "traces/canneal_big2.champsimtrace")
*** Reached end of trace: (4, "traces/canneal_big4.champsimtrace")
*** Reached end of trace: (3, "traces/canneal_big3.champsimtrace")
Heartbeat CPU 2 instructions: 490000001 cycles: 122505209 heartbeat IPC: 4 cumulative IPC: 4 (Simulation time: 06 hr 11 min 11 sec)
Heartbeat CPU 7 instructions: 490000001 cycles: 122505215 heartbeat IPC: 4 cumulative IPC: 4 (Simulation time: 06 hr 11 min 11 sec)
Heartbeat CPU 4 instructions: 490000001 cycles: 122505240 heartbeat IPC: 4 cumulative IPC: 4 (Simulation time: 06 hr 11 min 11 sec)
Heartbeat CPU 3 instructions: 490000001 cycles: 122505262 heartbeat IPC: 4 cumulative IPC: 4 (Simulation time: 06 hr 11 min 11 sec)
*** Reached end of trace: (0, "traces/canneal_big0.champsimtrace")
*** Reached end of trace: (2, "traces/canneal_big2.champsimtrace")
*** Reached end of trace: (7, "traces/canneal_big2.champsimtrace")
*** Reached end of trace: (4, "traces/canneal_big4.champsimtrace")
*** Reached end of trace: (3, "traces/canneal_big3.champsimtrace")
*** Reached end of trace: (6, "traces/canneal_big1.champsimtrace")
*** Reached end of trace: (5, "traces/canneal_big0.champsimtrace")
*** Reached end of trace: (2, "traces/canneal_big2.champsimtrace")
*** Reached end of trace: (7, "traces/canneal_big2.champsimtrace")
*** Reached end of trace: (4, "traces/canneal_big4.champsimtrace")
*** Reached end of trace: (3, "traces/canneal_big3.champsimtrace")
Heartbeat CPU 2 instructions: 500000001 cycles: 125005209 heartbeat IPC: 4 cumulative IPC: 4 (Simulation time: 06 hr 18 min 59 sec)
Heartbeat CPU 7 instructions: 500000001 cycles: 125005215 heartbeat IPC: 4 cumulative IPC: 4 (Simulation time: 06 hr 18 min 59 sec)
Heartbeat CPU 4 instructions: 500000001 cycles: 125005240 heartbeat IPC: 4 cumulative IPC: 4 (Simulation time: 06 hr 18 min 59 sec)
Heartbeat CPU 3 instructions: 500000001 cycles: 125005262 heartbeat IPC: 4 cumulative IPC: 4 (Simulation time: 06 hr 18 min 59 sec)
*** Reached end of trace: (0, "traces/canneal_big0.champsimtrace")
Heartbeat CPU 0 instructions: 280000054 cycles: 125052954 heartbeat IPC: 2.117 cumulative IPC: 2.127 (Simulation time: 06 hr 19 min 09 sec)
*** Reached end of trace: (2, "traces/canneal_big2.champsimtrace")
*** Reached end of trace: (7, "traces/canneal_big2.champsimtrace")
*** Reached end of trace: (4, "traces/canneal_big4.champsimtrace")
*** Reached end of trace: (3, "traces/canneal_big3.champsimtrace")
*** Reached end of trace: (5, "traces/canneal_big0.champsimtrace")
Heartbeat CPU 5 instructions: 280000051 cycles: 126635641 heartbeat IPC: 2.099 cumulative IPC: 2.094 (Simulation time: 06 hr 24 min 17 sec)
*** Reached end of trace: (0, "traces/canneal_big0.champsimtrace")
*** Reached end of trace: (2, "traces/canneal_big2.champsimtrace")
*** Reached end of trace: (7, "traces/canneal_big2.champsimtrace")
*** Reached end of trace: (4, "traces/canneal_big4.champsimtrace")
*** Reached end of trace: (3, "traces/canneal_big3.champsimtrace")
Heartbeat CPU 2 instructions: 510000001 cycles: 127505209 heartbeat IPC: 4 cumulative IPC: 4 (Simulation time: 06 hr 27 min 27 sec)
Heartbeat CPU 7 instructions: 510000001 cycles: 127505215 heartbeat IPC: 4 cumulative IPC: 4 (Simulation time: 06 hr 27 min 27 sec)
Heartbeat CPU 4 instructions: 510000001 cycles: 127505240 heartbeat IPC: 4 cumulative IPC: 4 (Simulation time: 06 hr 27 min 27 sec)
Heartbeat CPU 3 instructions: 510000001 cycles: 127505262 heartbeat IPC: 4 cumulative IPC: 4 (Simulation time: 06 hr 27 min 27 sec)
*** Reached end of trace: (2, "traces/canneal_big2.champsimtrace")
*** Reached end of trace: (7, "traces/canneal_big2.champsimtrace")
*** Reached end of trace: (4, "traces/canneal_big4.champsimtrace")
*** Reached end of trace: (3, "traces/canneal_big3.champsimtrace")
*** Reached end of trace: (5, "traces/canneal_big0.champsimtrace")
*** Reached end of trace: (0, "traces/canneal_big0.champsimtrace")
Heartbeat CPU 0 instructions: 290000054 cycles: 129788511 heartbeat IPC: 2.112 cumulative IPC: 2.126 (Simulation time: 06 hr 34 min 38 sec)
*** Reached end of trace: (2, "traces/canneal_big2.champsimtrace")
*** Reached end of trace: (7, "traces/canneal_big2.champsimtrace")
*** Reached end of trace: (4, "traces/canneal_big4.champsimtrace")
*** Reached end of trace: (3, "traces/canneal_big3.champsimtrace")
Heartbeat CPU 2 instructions: 520000001 cycles: 130005209 heartbeat IPC: 4 cumulative IPC: 4 (Simulation time: 06 hr 35 min 10 sec)
Heartbeat CPU 7 instructions: 520000001 cycles: 130005215 heartbeat IPC: 4 cumulative IPC: 4 (Simulation time: 06 hr 35 min 10 sec)
Heartbeat CPU 4 instructions: 520000001 cycles: 130005240 heartbeat IPC: 4 cumulative IPC: 4 (Simulation time: 06 hr 35 min 10 sec)
Heartbeat CPU 3 instructions: 520000001 cycles: 130005262 heartbeat IPC: 4 cumulative IPC: 4 (Simulation time: 06 hr 35 min 10 sec)
*** Reached end of trace: (2, "traces/canneal_big2.champsimtrace")
*** Reached end of trace: (7, "traces/canneal_big2.champsimtrace")
*** Reached end of trace: (4, "traces/canneal_big4.champsimtrace")
*** Reached end of trace: (3, "traces/canneal_big3.champsimtrace")
*** Reached end of trace: (5, "traces/canneal_big0.champsimtrace")
Heartbeat CPU 5 instructions: 290000052 cycles: 131372778 heartbeat IPC: 2.111 cumulative IPC: 2.094 (Simulation time: 06 hr 38 min 31 sec)
*** Reached end of trace: (0, "traces/canneal_big0.champsimtrace")
*** Reached end of trace: (2, "traces/canneal_big2.champsimtrace")
*** Reached end of trace: (7, "traces/canneal_big2.champsimtrace")
*** Reached end of trace: (4, "traces/canneal_big4.champsimtrace")
*** Reached end of trace: (3, "traces/canneal_big3.champsimtrace")
Heartbeat CPU 2 instructions: 530000001 cycles: 132505209 heartbeat IPC: 4 cumulative IPC: 4 (Simulation time: 06 hr 41 min 23 sec)
Heartbeat CPU 7 instructions: 530000001 cycles: 132505215 heartbeat IPC: 4 cumulative IPC: 4 (Simulation time: 06 hr 41 min 23 sec)
Heartbeat CPU 4 instructions: 530000001 cycles: 132505240 heartbeat IPC: 4 cumulative IPC: 4 (Simulation time: 06 hr 41 min 23 sec)
Heartbeat CPU 3 instructions: 530000001 cycles: 132505262 heartbeat IPC: 4 cumulative IPC: 4 (Simulation time: 06 hr 41 min 23 sec)
*** Reached end of trace: (5, "traces/canneal_big0.champsimtrace")
*** Reached end of trace: (2, "traces/canneal_big2.champsimtrace")
*** Reached end of trace: (7, "traces/canneal_big2.champsimtrace")
*** Reached end of trace: (4, "traces/canneal_big4.champsimtrace")
*** Reached end of trace: (3, "traces/canneal_big3.champsimtrace")
*** Reached end of trace: (0, "traces/canneal_big0.champsimtrace")
Heartbeat CPU 0 instructions: 300000057 cycles: 134534249 heartbeat IPC: 2.107 cumulative IPC: 2.125 (Simulation time: 06 hr 47 min 36 sec)
*** Reached end of trace: (2, "traces/canneal_big2.champsimtrace")
*** Reached end of trace: (7, "traces/canneal_big2.champsimtrace")
*** Reached end of trace: (4, "traces/canneal_big4.champsimtrace")
*** Reached end of trace: (3, "traces/canneal_big3.champsimtrace")
Heartbeat CPU 2 instructions: 540000001 cycles: 135005209 heartbeat IPC: 4 cumulative IPC: 4 (Simulation time: 06 hr 49 min 23 sec)
Heartbeat CPU 7 instructions: 540000001 cycles: 135005215 heartbeat IPC: 4 cumulative IPC: 4 (Simulation time: 06 hr 49 min 23 sec)
Heartbeat CPU 4 instructions: 540000001 cycles: 135005240 heartbeat IPC: 4 cumulative IPC: 4 (Simulation time: 06 hr 49 min 23 sec)
[...]
cpu5->cpu5_L1D RFO          ACCESS:          0 HIT:          0 MISS:          0 MSHR_MERGE:          0
cpu5->cpu5_L1D PREFETCH     ACCESS:          0 HIT:          0 MISS:          0 MSHR_MERGE:          0
cpu5->cpu5_L1D WRITE        ACCESS:  225924565 HIT:  182534078 MISS:   43390487 MSHR_MERGE:   36882334
cpu5->cpu5_L1D TRANSLATION  ACCESS:          0 HIT:          0 MISS:          0 MSHR_MERGE:          0
cpu5->cpu5_L1D PREFETCH REQUESTED:          0 ISSUED:          0 USEFUL:          0 USELESS:          0
cpu5->cpu5_L1D AVERAGE MISS LATENCY: 348.5 cycles
cpu5_L1D COHERENCE INVALIDATIONS:          0
cpu5->cpu5_ITLB TOTAL        ACCESS:  169209302 HIT:  169140793 MISS:      68509 MSHR_MERGE:      24049
cpu5->cpu5_ITLB LOAD         ACCESS:  169209302 HIT:  169140793 MISS:      68509 MSHR_MERGE:      24049
cpu5->cpu5_ITLB RFO          ACCESS:          0 HIT:          0 MISS:          0 MSHR_MERGE:          0
cpu5->cpu5_ITLB PREFETCH     ACCESS:          0 HIT:          0 MISS:          0 MSHR_MERGE:          0
cpu5->cpu5_ITLB WRITE        ACCESS:          0 HIT:          0 MISS:          0 MSHR_MERGE:          0
cpu5->cpu5_ITLB TRANSLATION  ACCESS:          0 HIT:          0 MISS:          0 MSHR_MERGE:          0
cpu5->cpu5_ITLB PREFETCH REQUESTED:          0 ISSUED:          0 USEFUL:          0 USELESS:          0
cpu5->cpu5_ITLB AVERAGE MISS LATENCY: 4.024 cycles
cpu5_ITLB COHERENCE INVALIDATIONS:          0
cpu5->cpu5_DTLB TOTAL        ACCESS:  203248120 HIT:  202683806 MISS:     564314 MSHR_MERGE:     122700
cpu5->cpu5_DTLB LOAD         ACCESS:  203248120 HIT:  202683806 MISS:     564314 MSHR_MERGE:     122700
cpu5->cpu5_DTLB RFO          ACCESS:          0 HIT:          0 MISS:          0 MSHR_MERGE:          0
cpu5->cpu5_DTLB PREFETCH     ACCESS:          0 HIT:          0 MISS:          0 MSHR_MERGE:          0
cpu5->cpu5_DTLB WRITE        ACCESS:          0 HIT:          0 MISS:          0 MSHR_MERGE:          0
cpu5->cpu5_DTLB TRANSLATION  ACCESS:          0 HIT:          0 MISS:          0 MSHR_MERGE:          0
cpu5->cpu5_DTLB PREFETCH REQUESTED:          0 ISSUED:          0 USEFUL:          0 USELESS:          0
cpu5->cpu5_DTLB AVERAGE MISS LATENCY: 4.022 cycles
cpu5_DTLB COHERENCE INVALIDATIONS:          0
cpu4_STLB COHERENCE INVALIDATIONS:          0
cpu4_L2C COHERENCE INVALIDATIONS:          0
cpu4->cpu4_L1I TOTAL        ACCESS:  333413943 HIT:  333413943 MISS:          0 MSHR_MERGE:          0
cpu4->cpu4_L1I LOAD         ACCESS:  333413943 HIT:  333413943 MISS:          0 MSHR_MERGE:          0
cpu4->cpu4_L1I RFO          ACCESS:          0 HIT:          0 MISS:          0 MSHR_MERGE:          0
cpu4->cpu4_L1I PREFETCH     ACCESS:          0 HIT:          0 MISS:          0 MSHR_MERGE:          0
cpu4->cpu4_L1I WRITE        ACCESS:          0 HIT:          0 MISS:          0 MSHR_MERGE:          0
cpu4->cpu4_L1I TRANSLATION  ACCESS:          0 HIT:          0 MISS:          0 MSHR_MERGE:          0
cpu4->cpu4_L1I PREFETCH REQUESTED:          0 ISSUED:          0 USEFUL:          0 USELESS:          0
cpu4->cpu4_L1I AVERAGE MISS LATENCY: - cycles
cpu4_L1I COHERENCE INVALIDATIONS:          0
cpu4_L1D COHERENCE INVALIDATIONS:          0
cpu4->cpu4_ITLB TOTAL        ACCESS:  277281332 HIT:  277281332 MISS:          0 MSHR_MERGE:          0
cpu4->cpu4_ITLB LOAD         ACCESS:  277281332 HIT:  277281332 MISS:          0 MSHR_MERGE:          0
cpu4->cpu4_ITLB RFO          ACCESS:          0 HIT:          0 MISS:          0 MSHR_MERGE:          0
cpu4->cpu4_ITLB PREFETCH     ACCESS:          0 HIT:          0 MISS:          0 MSHR_MERGE:          0
cpu4->cpu4_ITLB WRITE        ACCESS:          0 HIT:          0 MISS:          0 MSHR_MERGE:          0
cpu4->cpu4_ITLB TRANSLATION  ACCESS:          0 HIT:          0 MISS:          0 MSHR_MERGE:          0
cpu4->cpu4_ITLB PREFETCH REQUESTED:          0 ISSUED:          0 USEFUL:          0 USELESS:          0
cpu4->cpu4_ITLB AVERAGE MISS LATENCY: - cycles
cpu4_ITLB COHERENCE INVALIDATIONS:          0
cpu4_DTLB COHERENCE INVALIDATIONS:          0
cpu3_STLB COHERENCE INVALIDATIONS:          0
cpu3_L2C COHERENCE INVALIDATIONS:          0
cpu3->cpu3_L1I TOTAL        ACCESS:  356717262 HIT:  356717262 MISS:          0 MSHR_MERGE:          0
cpu3->cpu3_L1I LOAD         ACCESS:  356717262 HIT:  356717262 MISS:          0 MSHR_MERGE:          0
cpu3->cpu3_L1I RFO          ACCESS:          0 HIT:          0 MISS:          0 MSHR_MERGE:          0
cpu3->cpu3_L1I PREFETCH     ACCESS:          0 HIT:          0 MISS:          0 MSHR_MERGE:          0
cpu3->cpu3_L1I WRITE        ACCESS:          0 HIT:          0 MISS:          0 MSHR_MERGE:          0
cpu3->cpu3_L1I TRANSLATION  ACCESS:          0 HIT:          0 MISS:          0 MSHR_MERGE:          0
cpu3->cpu3_L1I PREFETCH REQUESTED:          0 ISSUED:          0 USEFUL:          0 USELESS:          0
cpu3->cpu3_L1I AVERAGE MISS LATENCY: - cycles
cpu3_L1I COHERENCE INVALIDATIONS:          0
cpu3_L1D COHERENCE INVALIDATIONS:          0
cpu3->cpu3_ITLB TOTAL        ACCESS:  297727128 HIT:  297727128 MISS:          0 MSHR_MERGE:          0
cpu3->cpu3_ITLB LOAD         ACCESS:  297727128 HIT:  297727128 MISS:          0 MSHR_MERGE:          0
cpu3->cpu3_ITLB RFO          ACCESS:          0 HIT:          0 MISS:          0 MSHR_MERGE:          0
cpu3->cpu3_ITLB PREFETCH     ACCESS:          0 HIT:          0 MISS:          0 MSHR_MERGE:          0
cpu3->cpu3_ITLB WRITE        ACCESS:          0 HIT:          0 MISS:          0 MSHR_MERGE:          0
cpu3->cpu3_ITLB TRANSLATION  ACCESS:          0 HIT:          0 MISS:          0 MSHR_MERGE:          0
cpu3->cpu3_ITLB PREFETCH REQUESTED:          0 ISSUED:          0 USEFUL:          0 USELESS:          0
cpu3->cpu3_ITLB AVERAGE MISS LATENCY: - cycles
cpu3_ITLB COHERENCE INVALIDATIONS:          0
cpu3_DTLB COHERENCE INVALIDATIONS:          0
cpu2_STLB COHERENCE INVALIDATIONS:          0
cpu2_L2C COHERENCE INVALIDATIONS:          0
cpu2->cpu2_L1I TOTAL        ACCESS:  328417469 HIT:  328417469 MISS:          0 MSHR_MERGE:          0
cpu2->cpu2_L1I LOAD         ACCESS:  328417469 HIT:  328417469 MISS:          0 MSHR_MERGE:          0
cpu2->cpu2_L1I RFO          ACCESS:          0 HIT:          0 MISS:          0 MSHR_MERGE:          0
cpu2->cpu2_L1I PREFETCH     ACCESS:          0 HIT:          0 MISS:          0 MSHR_MERGE:          0
cpu2->cpu2_L1I WRITE        ACCESS:          0 HIT:          0 MISS:          0 MSHR_MERGE:          0
cpu2->cpu2_L1I TRANSLATION  ACCESS:          0 HIT:          0 MISS:          0 MSHR_MERGE:          0
cpu2->cpu2_L1I PREFETCH REQUESTED:          0 ISSUED:          0 USEFUL:          0 USELESS:          0
cpu2->cpu2_L1I AVERAGE MISS LATENCY: - cycles
cpu2_L1I COHERENCE INVALIDATIONS:          0
cpu2_L1D COHERENCE INVALIDATIONS:          0
cpu2->cpu2_ITLB TOTAL        ACCESS:  285581087 HIT:  285581087 MISS:          0 MSHR_MERGE:          0
cpu2->cpu2_ITLB LOAD         ACCESS:  285581087 HIT:  285581087 MISS:          0 MSHR_MERGE:          0
cpu2->cpu2_ITLB RFO          ACCESS:          0 HIT:          0 MISS:          0 MSHR_MERGE:          0
cpu2->cpu2_ITLB PREFETCH     ACCESS:          0 HIT:          0 MISS:          0 MSHR_MERGE:          0
cpu2->cpu2_ITLB WRITE        ACCESS:          0 HIT:          0 MISS:          0 MSHR_MERGE:          0
cpu2->cpu2_ITLB TRANSLATION  ACCESS:          0 HIT:          0 MISS:          0 MSHR_MERGE:          0
cpu2->cpu2_ITLB PREFETCH REQUESTED:          0 ISSUED:          0 USEFUL:          0 USELESS:          0
cpu2->cpu2_ITLB AVERAGE MISS LATENCY: - cycles
cpu2_ITLB COHERENCE INVALIDATIONS:          0
cpu2_DTLB COHERENCE INVALIDATIONS:          0
cpu1->cpu1_STLB TOTAL        ACCESS:    2226639 HIT:    2029888 MISS:     196751 MSHR_MERGE:          0
cpu1->cpu1_STLB LOAD         ACCESS:    2226639 HIT:    2029888 MISS:     196751 MSHR_MERGE:          0
cpu1->cpu1_STLB RFO          ACCESS:          0 HIT:          0 MISS:          0 MSHR_MERGE:          0
cpu1->cpu1_STLB PREFETCH     ACCESS:          0 HIT:          0 MISS:          0 MSHR_MERGE:          0
cpu1->cpu1_STLB WRITE        ACCESS:          0 HIT:          0 MISS:          0 MSHR_MERGE:          0
cpu1->cpu1_STLB TRANSLATION  ACCESS:          0 HIT:          0 MISS:          0 MSHR_MERGE:          0
cpu1->cpu1_STLB PREFETCH REQUESTED:          0 ISSUED:          0 USEFUL:          0 USELESS:          0
cpu1->cpu1_STLB AVERAGE MISS LATENCY: 919 cycles
cpu1_STLB COHERENCE INVALIDATIONS:          0
cpu1->cpu1_L2C TOTAL        ACCESS:    2359237 HIT:     411510 MISS:    1947727 MSHR_MERGE:          0
cpu1->cpu1_L2C LOAD         ACCESS:    1969348 HIT:     410548 MISS:    1558800 MSHR_MERGE:          0
cpu1->cpu1_L2C RFO          ACCESS:          0 HIT:          0 MISS:          0 MSHR_MERGE:          0
cpu1->cpu1_L2C PREFETCH     ACCESS:          0 HIT:          0 MISS:          0 MSHR_MERGE:          0
cpu1->cpu1_L2C WRITE        ACCESS:          0 HIT:          0 MISS:          0 MSHR_MERGE:          0
cpu1->cpu1_L2C TRANSLATION  ACCESS:     389889 HIT:        962 MISS:     388927 MSHR_MERGE:          0
cpu1->cpu1_L2C PREFETCH REQUESTED:          0 ISSUED:          0 USEFUL:          0 USELESS:          0
cpu1->cpu1_L2C AVERAGE MISS LATENCY: 475.1 cycles
cpu1_L2C COHERENCE INVALIDATIONS:          0
cpu1->cpu1_L1I TOTAL        ACCESS:   33784488 HIT:   31639058 MISS:    2145430 MSHR_MERGE:     176082
cpu1->cpu1_L1I LOAD         ACCESS:   33784488 HIT:   31639058 MISS:    2145430 MSHR_MERGE:     176082
cpu1->cpu1_L1I RFO          ACCESS:          0 HIT:          0 MISS:          0 MSHR_MERGE:          0
cpu1->cpu1_L1I PREFETCH     ACCESS:          0 HIT:          0 MISS:          0 MSHR_MERGE:          0
cpu1->cpu1_L1I WRITE        ACCESS:          0 HIT:          0 MISS:          0 MSHR_MERGE:          0
cpu1->cpu1_L1I TRANSLATION  ACCESS:          0 HIT:          0 MISS:          0 MSHR_MERGE:          0
cpu1->cpu1_L1I PREFETCH REQUESTED:          0 ISSUED:          0 USEFUL:          0 USELESS:          0
cpu1->cpu1_L1I AVERAGE MISS LATENCY: 388.6 cycles
cpu1_L1I COHERENCE INVALIDATIONS:          0
cpu1->cpu1_L1D TOTAL        ACCESS:     393639 HIT:       3750 MISS:     389889 MSHR_MERGE:          0
cpu1->cpu1_L1D LOAD         ACCESS:          0 HIT:          0 MISS:          0 MSHR_MERGE:          0
cpu1->cpu1_L1D RFO          ACCESS:          0 HIT:          0 MISS:          0 MSHR_MERGE:          0
cpu1->cpu1_L1D PREFETCH     ACCESS:          0 HIT:          0 MISS:          0 MSHR_MERGE:          0
cpu1->cpu1_L1D WRITE        ACCESS:          0 HIT:          0 MISS:          0 MSHR_MERGE:          0
cpu1->cpu1_L1D TRANSLATION  ACCESS:     393639 HIT:       3750 MISS:     389889 MSHR_MERGE:          0
cpu1->cpu1_L1D PREFETCH REQUESTED:          0 ISSUED:          0 USEFUL:          0 USELESS:          0
cpu1->cpu1_L1D AVERAGE MISS LATENCY: 457.7 cycles
cpu1_L1D COHERENCE INVALIDATIONS:          0
cpu1->cpu1_ITLB TOTAL        ACCESS:   33256861 HIT:   30979161 MISS:    2277700 MSHR_MERGE:      51061
cpu1->cpu1_ITLB LOAD         ACCESS:   33256861 HIT:   30979161 MISS:    2277700 MSHR_MERGE:      51061
cpu1->cpu1_ITLB RFO          ACCESS:          0 HIT:          0 MISS:          0 MSHR_MERGE:          0
cpu1->cpu1_ITLB PREFETCH     ACCESS:          0 HIT:          0 MISS:          0 MSHR_MERGE:          0
cpu1->cpu1_ITLB WRITE        ACCESS:          0 HIT:          0 MISS:          0 MSHR_MERGE:          0
cpu1->cpu1_ITLB TRANSLATION  ACCESS:          0 HIT:          0 MISS:          0 MSHR_MERGE:          0
cpu1->cpu1_ITLB PREFETCH REQUESTED:          0 ISSUED:          0 USEFUL:          0 USELESS:          0
cpu1->cpu1_ITLB AVERAGE MISS LATENCY: 85.29 cycles
cpu1_ITLB COHERENCE INVALIDATIONS:          0
cpu1_DTLB COHERENCE INVALIDATIONS:          0
cpu0->cpu0_STLB TOTAL        ACCESS:     491629 HIT:     491629 MISS:          0 MSHR_MERGE:          0
cpu0->cpu0_STLB LOAD         ACCESS:     491629 HIT:     491629 MISS:          0 MSHR_MERGE:          0
cpu0->cpu0_STLB RFO          ACCESS:          0 HIT:          0 MISS:          0 MSHR_MERGE:          0
cpu0->cpu0_STLB PREFETCH     ACCESS:          0 HIT:          0 MISS:          0 MSHR_MERGE:          0
cpu0->cpu0_STLB WRITE        ACCESS:          0 HIT:          0 MISS:          0 MSHR_MERGE:          0
cpu0->cpu0_STLB TRANSLATION  ACCESS:          0 HIT:          0 MISS:          0 MSHR_MERGE:          0
cpu0->cpu0_STLB PREFETCH REQUESTED:          0 ISSUED:          0 USEFUL:          0 USELESS:          0
cpu0->cpu0_STLB AVERAGE MISS LATENCY: - cycles
cpu0_STLB COHERENCE INVALIDATIONS:          0
cpu0->cpu0_L2C TOTAL        ACCESS:   15750794 HIT:    7636410 MISS:    8114384 MSHR_MERGE:          0
cpu0->cpu0_L2C LOAD         ACCESS:    2487655 HIT:     835404 MISS:    1652251 MSHR_MERGE:          0
cpu0->cpu0_L2C RFO          ACCESS:    6582544 HIT:     120674 MISS:    6461870 MSHR_MERGE:          0
cpu0->cpu0_L2C PREFETCH     ACCESS:          0 HIT:          0 MISS:          0 MSHR_MERGE:          0
cpu0->cpu0_L2C WRITE        ACCESS:    6680595 HIT:    6680332 MISS:        263 MSHR_MERGE:          0
cpu0->cpu0_L2C TRANSLATION  ACCESS:          0 HIT:          0 MISS:          0 MSHR_MERGE:          0
cpu0->cpu0_L2C PREFETCH REQUESTED:          0 ISSUED:          0 USEFUL:          0 USELESS:          0
cpu0->cpu0_L2C AVERAGE MISS LATENCY: 377.2 cycles
cpu0_L2C COHERENCE INVALIDATIONS:          0
cpu0->cpu0_L1I TOTAL        ACCESS:  221008863 HIT:  220527145 MISS:     481718 MSHR_MERGE:     124827
cpu0->cpu0_L1I LOAD         ACCESS:  221008863 HIT:  220527145 MISS:     481718 MSHR_MERGE:     124827
cpu0->cpu0_L1I RFO          ACCESS:          0 HIT:          0 MISS:          0 MSHR_MERGE:          0
cpu0->cpu0_L1I PREFETCH     ACCESS:          0 HIT:          0 MISS:          0 MSHR_MERGE:          0
cpu0->cpu0_L1I WRITE        ACCESS:          0 HIT:          0 MISS:          0 MSHR_MERGE:          0
cpu0->cpu0_L1I TRANSLATION  ACCESS:          0 HIT:          0 MISS:          0 MSHR_MERGE:          0
cpu0->cpu0_L1I PREFETCH REQUESTED:          0 ISSUED:          0 USEFUL:          0 USELESS:          0
cpu0->cpu0_L1I AVERAGE MISS LATENCY: 62.86 cycles
cpu0_L1I COHERENCE INVALIDATIONS:          0
cpu0->cpu0_L1D TOTAL        ACCESS:  252710137 HIT:  205724935 MISS:   46985202 MSHR_MERGE:   38267022
cpu0->cpu0_L1D LOAD         ACCESS:   24397695 HIT:   21387005 MISS:    3010690 MSHR_MERGE:     879926
cpu0->cpu0_L1D RFO          ACCESS:          0 HIT:          0 MISS:          0 MSHR_MERGE:          0
cpu0->cpu0_L1D PREFETCH     ACCESS:          0 HIT:          0 MISS:          0 MSHR_MERGE:          0
cpu0->cpu0_L1D WRITE        ACCESS:  228312442 HIT:  184337930 MISS:   43974512 MSHR_MERGE:   37387096
cpu0->cpu0_L1D TRANSLATION  ACCESS:          0 HIT:          0 MISS:          0 MSHR_MERGE:          0
cpu0->cpu0_L1D PREFETCH REQUESTED:          0 ISSUED:          0 USEFUL:          0 USELESS:          0
cpu0->cpu0_L1D AVERAGE MISS LATENCY: 356.7 cycles
cpu0_L1D COHERENCE INVALIDATIONS:          0
cpu0->cpu0_ITLB TOTAL        ACCESS:  184057827 HIT:  183984187 MISS:      73640 MSHR_MERGE:      28667
cpu0->cpu0_ITLB LOAD         ACCESS:  184057827 HIT:  183984187 MISS:      73640 MSHR_MERGE:      28667
cpu0->cpu0_ITLB RFO          ACCESS:          0 HIT:          0 MISS:          0 MSHR_MERGE:          0
cpu0->cpu0_ITLB PREFETCH     ACCESS:          0 HIT:          0 MISS:          0 MSHR_MERGE:          0
cpu0->cpu0_ITLB WRITE        ACCESS:          0 HIT:          0 MISS:          0 MSHR_MERGE:          0
cpu0->cpu0_ITLB TRANSLATION  ACCESS:          0 HIT:          0 MISS:          0 MSHR_MERGE:          0
cpu0->cpu0_ITLB PREFETCH REQUESTED:          0 ISSUED:          0 USEFUL:          0 USELESS:          0
cpu0->cpu0_ITLB AVERAGE MISS LATENCY: 4.008 cycles
cpu0_ITLB COHERENCE INVALIDATIONS:          0
cpu0->cpu0_DTLB TOTAL        ACCESS:  210478481 HIT:  209903729 MISS:     574752 MSHR_MERGE:     128096
cpu0->cpu0_DTLB LOAD         ACCESS:  210478481 HIT:  209903729 MISS:     574752 MSHR_MERGE:     128096
cpu0->cpu0_DTLB RFO          ACCESS:          0 HIT:          0 MISS:          0 MSHR_MERGE:          0
cpu0->cpu0_DTLB PREFETCH     ACCESS:          0 HIT:          0 MISS:          0 MSHR_MERGE:          0
cpu0->cpu0_DTLB WRITE        ACCESS:          0 HIT:          0 MISS:          0 MSHR_MERGE:          0
cpu0->cpu0_DTLB TRANSLATION  ACCESS:          0 HIT:          0 MISS:          0 MSHR_MERGE:          0
cpu0->cpu0_DTLB PREFETCH REQUESTED:          0 ISSUED:          0 USEFUL:          0 USELESS:          0
cpu0->cpu0_DTLB AVERAGE MISS LATENCY: 4 cycles
cpu0_DTLB COHERENCE INVALIDATIONS:          0
cpu0->LLC TOTAL        ACCESS:   14645845 HIT:    3178715 MISS:   11467130 MSHR_MERGE:          0
cpu0->LLC LOAD         ACCESS:    1652251 HIT:    1518389 MISS:     133862 MSHR_MERGE:          0
cpu0->LLC RFO          ACCESS:    6461869 HIT:     797062 MISS:    5664807 MSHR_MERGE:          0
cpu0->LLC PREFETCH     ACCESS:          0 HIT:          0 MISS:          0 MSHR_MERGE:          0
cpu0->LLC WRITE        ACCESS:    6531725 HIT:     863264 MISS:    5668461 MSHR_MERGE:          0
cpu0->LLC TRANSLATION  ACCESS:          0 HIT:          0 MISS:          0 MSHR_MERGE:          0
cpu0->LLC PREFETCH REQUESTED:          0 ISSUED:          0 USEFUL:          0 USELESS:          0
cpu0->LLC AVERAGE MISS LATENCY: 630.8 cycles
cpu1->LLC TOTAL        ACCESS:    1947727 HIT:     206285 MISS:    1741442 MSHR_MERGE:          0
cpu1->LLC LOAD         ACCESS:    1558800 HIT:     157614 MISS:    1401186 MSHR_MERGE:          0
cpu1->LLC RFO          ACCESS:          0 HIT:          0 MISS:          0 MSHR_MERGE:          0
cpu1->LLC PREFETCH     ACCESS:          0 HIT:          0 MISS:          0 MSHR_MERGE:          0
cpu1->LLC WRITE        ACCESS:          0 HIT:          0 MISS:          0 MSHR_MERGE:          0
cpu1->LLC TRANSLATION  ACCESS:     388927 HIT:      48671 MISS:     340256 MSHR_MERGE:          0
cpu1->LLC PREFETCH REQUESTED:          0 ISSUED:          0 USEFUL:          0 USELESS:          0
cpu1->LLC AVERAGE MISS LATENCY: 4154 cycles
cpu5->LLC TOTAL        ACCESS:   14463643 HIT:    3074924 MISS:   11388719 MSHR_MERGE:          0
cpu5->LLC LOAD         ACCESS:    1627850 HIT:    1479140 MISS:     148710 MSHR_MERGE:          0
cpu5->LLC RFO          ACCESS:    6382619 HIT:     766105 MISS:    5616514 MSHR_MERGE:          0
cpu5->LLC PREFETCH     ACCESS:          0 HIT:          0 MISS:          0 MSHR_MERGE:          0
cpu5->LLC WRITE        ACCESS:    6453174 HIT:     829679 MISS:    5623495 MSHR_MERGE:          0
cpu5->LLC TRANSLATION  ACCESS:          0 HIT:          0 MISS:          0 MSHR_MERGE:          0
cpu5->LLC PREFETCH REQUESTED:          0 ISSUED:          0 USEFUL:          0 USELESS:          0
cpu5->LLC AVERAGE MISS LATENCY: 635.2 cycles
cpu6->LLC TOTAL        ACCESS:    1941914 HIT:     210673 MISS:    1731241 MSHR_MERGE:          0
cpu6->LLC LOAD         ACCESS:    1554287 HIT:     162747 MISS:    1391540 MSHR_MERGE:          0
cpu6->LLC RFO          ACCESS:          0 HIT:          0 MISS:          0 MSHR_MERGE:          0
cpu6->LLC PREFETCH     ACCESS:          0 HIT:          0 MISS:          0 MSHR_MERGE:          0
cpu6->LLC WRITE        ACCESS:          0 HIT:          0 MISS:          0 MSHR_MERGE:          0
cpu6->LLC TRANSLATION  ACCESS:     387627 HIT:      47926 MISS:     339701 MSHR_MERGE:          0
cpu6->LLC PREFETCH REQUESTED:          0 ISSUED:          0 USEFUL:          0 USELESS:          0
cpu6->LLC AVERAGE MISS LATENCY: 4178 cycles
LLC COHERENCE INVALIDATIONS:          0

DRAM Statistics

Channel 0 RQ ROW_BUFFER_HIT:     695555
  ROW_BUFFER_MISS:   14341005
  AVG DBUS CONGESTED CYCLE: 7.268
Channel 0 WQ ROW_BUFFER_HIT:    1490720
  ROW_BUFFER_MISS:    9801256
  FULL:    1301957
Channel 0 REFRESHES ISSUED:      51765
