[VMEM] WARNING: physical memory size is smaller than virtual memory size.

*** ChampSim Multicore Out-of-Order Simulator ***
Warmup Instructions: 50000000
Simulation Instructions: 100000000
Number of CPUs: 16
Page size: 4096

Off-chip DRAM Size: 16 GiB Channels: 1 Width: 64-bit Data Rate: 3205 MT/s
*** Reached end of trace: (7, "traces/canneal_big2.champsimtrace")
*** Reached end of trace: (2, "traces/canneal_big2.champsimtrace")
*** Reached end of trace: (12, "traces/canneal_big2.champsimtrace")
*** Reached end of trace: (9, "traces/canneal_big4.champsimtrace")
*** Reached end of trace: (14, "traces/canneal_big4.champsimtrace")
*** Reached end of trace: (4, "traces/canneal_big4.champsimtrace")
*** Reached end of trace: (8, "traces/canneal_big3.champsimtrace")
*** Reached end of trace: (13, "traces/canneal_big3.champsimtrace")
*** Reached end of trace: (3, "traces/canneal_big3.champsimtrace")
*** Reached end of trace: (5, "traces/canneal_big0.champsimtrace")
*** Reached end of trace: (0, "traces/canneal_big0.champsimtrace")
*** Reached end of trace: (10, "traces/canneal_big0.champsimtrace")
*** Reached end of trace: (15, "traces/canneal_big0.champsimtrace")
*** Reached end of trace: (7, "traces/canneal_big2.champsimtrace")
*** Reached end of trace: (2, "traces/canneal_big2.champsimtrace")
*** Reached end of trace: (12, "traces/canneal_big2.champsimtrace")
*** Reached end of trace: (9, "traces/canneal_big4.champsimtrace")
*** Reached end of trace: (14, "traces/canneal_big4.champsimtrace")
*** Reached end of trace: (4, "traces/canneal_big4.champsimtrace")
*** Reached end of trace: (8, "traces/canneal_big3.champsimtrace")
*** Reached end of trace: (13, "traces/canneal_big3.champsimtrace")
*** Reached end of trace: (3, "traces/canneal_big3.champsimtrace")
Heartbeat CPU 7 instructions: 10000001 cycles: 2505205 heartbeat IPC: 3.992 cumulative IPC: 3.992 (Simulation time: 00 hr 21 min 53 sec)
Heartbeat CPU 2 instructions: 10000001 cycles: 2505211 heartbeat IPC: 3.992 cumulative IPC: 3.992 (Simulation time: 00 hr 21 min 53 sec)
Heartbeat CPU 12 instructions: 10000001 cycles: 2505220 heartbeat IPC: 3.992 cumulative IPC: 3.992 (Simulation time: 00 hr 21 min 53 sec)
Heartbeat CPU 9 instructions: 10000000 cycles: 2505239 heartbeat IPC: 3.992 cumulative IPC: 3.992 (Simulation time: 00 hr 21 min 53 sec)
Heartbeat CPU 14 instructions: 10000001 cycles: 2505247 heartbeat IPC: 3.992 cumulative IPC: 3.992 (Simulation time: 00 hr 21 min 53 sec)
Heartbeat CPU 4 instructions: 10000003 cycles: 2505248 heartbeat IPC: 3.992 cumulative IPC: 3.992 (Simulation time: 00 hr 21 min 53 sec)
Heartbeat CPU 8 instructions: 10000002 cycles: 2505259 heartbeat IPC: 3.992 cumulative IPC: 3.992 (Simulation time: 00 hr 21 min 53 sec)
Heartbeat CPU 13 instructions: 10000001 cycles: 2505263 heartbeat IPC: 3.992 cumulative IPC: 3.992 (Simulation time: 00 hr 21 min 53 sec)
Heartbeat CPU 3 instructions: 10000001 cycles: 2505264 heartbeat IPC: 3.992 cumulative IPC: 3.992 (Simulation time: 00 hr 21 min 53 sec)
*** Reached end of trace: (7, "traces/canneal_big2.champsimtrace")
*** Reached end of trace: (2, "traces/canneal_big2.champsimtrace")
*** Reached end of trace: (12, "traces/canneal_big2.champsimtrace")
*** Reached end of trace: (9, "traces/canneal_big4.champsimtrace")
*** Reached end of trace: (4, "traces/canneal_big4.champsimtrace")
*** Reached end of trace: (14, "traces/canneal_big4.champsimtrace")
*** Reached end of trace: (8, "traces/canneal_big3.champsimtrace")
*** Reached end of trace: (13, "traces/canneal_big3.champsimtrace")
*** Reached end of trace: (3, "traces/canneal_big3.champsimtrace")
*** Reached end of trace: (0, "traces/canneal_big0.champsimtrace")
*** Reached end of trace: (10, "traces/canneal_big0.champsimtrace")
Heartbeat CPU 0 instructions: 10000003 cycles: 4084718 heartbeat IPC: 2.448 cumulative IPC: 2.448 (Simulation time: 00 hr 35 min 21 sec)
*** Reached end of trace: (15, "traces/canneal_big0.champsimtrace")
Heartbeat CPU 10 instructions: 10000003 cycles: 4084803 heartbeat IPC: 2.448 cumulative IPC: 2.448 (Simulation time: 00 hr 35 min 21 sec)
Heartbeat CPU 15 instructions: 10000003 cycles: 4084849 heartbeat IPC: 2.448 cumulative IPC: 2.448 (Simulation time: 00 hr 35 min 21 sec)
*** Reached end of trace: (5, "traces/canneal_big0.champsimtrace")
Heartbeat CPU 5 instructions: 10000003 cycles: 4087273 heartbeat IPC: 2.447 cumulative IPC: 2.447 (Simulation time: 00 hr 35 min 23 sec)
*** Reached end of trace: (7, "traces/canneal_big2.champsimtrace")
*** Reached end of trace: (2, "traces/canneal_big2.champsimtrace")
*** Reached end of trace: (12, "traces/canneal_big2.champsimtrace")
*** Reached end of trace: (9, "traces/canneal_big4.champsimtrace")
*** Reached end of trace: (14, "traces/canneal_big4.champsimtrace")
*** Reached end of trace: (4, "traces/canneal_big4.champsimtrace")
*** Reached end of trace: (8, "traces/canneal_big3.champsimtrace")
*** Reached end of trace: (13, "traces/canneal_big3.champsimtrace")
*** Reached end of trace: (3, "traces/canneal_big3.champsimtrace")
Heartbeat CPU 7 instructions: 20000001 cycles: 5005205 heartbeat IPC: 4 cumulative IPC: 3.996 (Simulation time: 00 hr 43 min 11 sec)
Heartbeat CPU 2 instructions: 20000001 cycles: 5005211 heartbeat IPC: 4 cumulative IPC: 3.996 (Simulation time: 00 hr 43 min 11 sec)
Heartbeat CPU 12 instructions: 20000001 cycles: 5005220 heartbeat IPC: 4 cumulative IPC: 3.996 (Simulation time: 00 hr 43 min 11 sec)
Heartbeat CPU 9 instructions: 20000000 cycles: 5005239 heartbeat IPC: 4 cumulative IPC: 3.996 (Simulation time: 00 hr 43 min 11 sec)
Heartbeat CPU 14 instructions: 20000001 cycles: 5005247 heartbeat IPC: 4 cumulative IPC: 3.996 (Simulation time: 00 hr 43 min 11 sec)
Heartbeat CPU 4 instructions: 20000003 cycles: 5005248 heartbeat IPC: 4 cumulative IPC: 3.996 (Simulation time: 00 hr 43 min 11 sec)
Heartbeat CPU 8 instructions: 20000002 cycles: 5005259 heartbeat IPC: 4 cumulative IPC: 3.996 (Simulation time: 00 hr 43 min 11 sec)
Heartbeat CPU 13 instructions: 20000001 cycles: 5005263 heartbeat IPC: 4 cumulative IPC: 3.996 (Simulation time: 00 hr 43 min 11 sec)
Heartbeat CPU 3 instructions: 20000001 cycles: 5005264 heartbeat IPC: 4 cumulative IPC: 3.996 (Simulation time: 00 hr 43 min 11 sec)
*** Reached end of trace: (11, "traces/canneal_big1.champsimtrace")
*** Reached end of trace: (1, "traces/canneal_big1.champsimtrace")
*** Reached end of trace: (6, "traces/canneal_big1.champsimtrace")
*** Reached end of trace: (0, "traces/canneal_big0.champsimtrace")
*** Reached end of trace: (10, "traces/canneal_big0.champsimtrace")
*** Reached end of trace: (15, "traces/canneal_big0.champsimtrace")
*** Reached end of trace: (5, "traces/canneal_big0.champsimtrace")
*** Reached end of trace: (7, "traces/canneal_big2.champsimtrace")
*** Reached end of trace: (2, "traces/canneal_big2.champsimtrace")
*** Reached end of trace: (12, "traces/canneal_big2.champsimtrace")
*** Reached end of trace: (9, "traces/canneal_big4.champsimtrace")
*** Reached end of trace: (14, "traces/canneal_big4.champsimtrace")
*** Reached end of trace: (4, "traces/canneal_big4.champsimtrace")
*** Reached end of trace: (8, "traces/canneal_big3.champsimtrace")
*** Reached end of trace: (13, "traces/canneal_big3.champsimtrace")
*** Reached end of trace: (3, "traces/canneal_big3.champsimtrace")
*** Reached end of trace: (7, "traces/canneal_big2.champsimtrace")
*** Reached end of trace: (2, "traces/canneal_big2.champsimtrace")
*** Reached end of trace: (12, "traces/canneal_big2.champsimtrace")
*** Reached end of trace: (9, "traces/canneal_big4.champsimtrace")
*** Reached end of trace: (4, "traces/canneal_big4.champsimtrace")
*** Reached end of trace: (14, "traces/canneal_big4.champsimtrace")
*** Reached end of trace: (8, "traces/canneal_big3.champsimtrace")
*** Reached end of trace: (13, "traces/canneal_big3.champsimtrace")
*** Reached end of trace: (3, "traces/canneal_big3.champsimtrace")
Heartbeat CPU 7 instructions: 30000001 cycles: 7505205 heartbeat IPC: 4 cumulative IPC: 3.997 (Simulation time: 01 hr 01 min 00 sec)
Heartbeat CPU 2 instructions: 30000001 cycles: 7505211 heartbeat IPC: 4 cumulative IPC: 3.997 (Simulation time: 01 hr 01 min 00 sec)
Heartbeat CPU 12 instructions: 30000001 cycles: 7505220 heartbeat IPC: 4 cumulative IPC: 3.997 (Simulation time: 01 hr 01 min 00 sec)
Heartbeat CPU 9 instructions: 30000000 cycles: 7505239 heartbeat IPC: 4 cumulative IPC: 3.997 (Simulation time: 01 hr 01 min 00 sec)
Heartbeat CPU 14 instructions: 30000001 cycles: 7505247 heartbeat IPC: 4 cumulative IPC: 3.997 (Simulation time: 01 hr 01 min 00 sec)
Heartbeat CPU 4 instructions: 30000003 cycles: 7505248 heartbeat IPC: 4 cumulative IPC: 3.997 (Simulation time: 01 hr 01 min 00 sec)
Heartbeat CPU 8 instructions: 30000002 cycles: 7505259 heartbeat IPC: 4 cumulative IPC: 3.997 (Simulation time: 01 hr 01 min 00 sec)
Heartbeat CPU 13 instructions: 30000001 cycles: 7505263 heartbeat IPC: 4 cumulative IPC: 3.997 (Simulation time: 01 hr 01 min 00 sec)
Heartbeat CPU 3 instructions: 30000001 cycles: 7505264 heartbeat IPC: 4 cumulative IPC: 3.997 (Simulation time: 01 hr 01 min 00 sec)
*** Reached end of trace: (11, "traces/canneal_big1.champsimtrace")
Heartbeat CPU 11 instructions: 10000002 cycles: 7857755 heartbeat IPC: 1.273 cumulative IPC: 1.273 (Simulation time: 01 hr 03 min 10 sec)
*** Reached end of trace: (1, "traces/canneal_big1.champsimtrace")
Heartbeat CPU 1 instructions: 10000002 cycles: 7864796 heartbeat IPC: 1.271 cumulative IPC: 1.271 (Simulation time: 01 hr 03 min 13 sec)
*** Reached end of trace: (6, "traces/canneal_big1.champsimtrace")
Heartbeat CPU 6 instructions: 10000002 cycles: 7895399 heartbeat IPC: 1.267 cumulative IPC: 1.267 (Simulation time: 01 hr 03 min 25 sec)
*** Reached end of trace: (0, "traces/canneal_big0.champsimtrace")
*** Reached end of trace: (10, "traces/canneal_big0.champsimtrace")
*** Reached end of trace: (15, "traces/canneal_big0.champsimtrace")
Heartbeat CPU 0 instructions: 20000006 cycles: 7930947 heartbeat IPC: 2.6 cumulative IPC: 2.522 (Simulation time: 01 hr 03 min 38 sec)
Heartbeat CPU 10 instructions: 20000006 cycles: 7931062 heartbeat IPC: 2.6 cumulative IPC: 2.522 (Simulation time: 01 hr 03 min 38 sec)
Heartbeat CPU 15 instructions: 20000006 cycles: 7931068 heartbeat IPC: 2.6 cumulative IPC: 2.522 (Simulation time: 01 hr 03 min 38 sec)
*** Reached end of trace: (5, "traces/canneal_big0.champsimtrace")
Heartbeat CPU 5 instructions: 20000006 cycles: 7942632 heartbeat IPC: 2.594 cumulative IPC: 2.518 (Simulation time: 01 hr 03 min 42 sec)
*** Reached end of trace: (7, "traces/canneal_big2.champsimtrace")
*** Reached end of trace: (2, "traces/canneal_big2.champsimtrace")
*** Reached end of trace: (12, "traces/canneal_big2.champsimtrace")
*** Reached end of trace: (9, "traces/canneal_big4.champsimtrace")
*** Reached end of trace: (4, "traces/canneal_big4.champsimtrace")
*** Reached end of trace: (14, "traces/canneal_big4.champsimtrace")
*** Reached end of trace: (8, "traces/canneal_big3.champsimtrace")
*** Reached end of trace: (13, "traces/canneal_big3.champsimtrace")
*** Reached end of trace: (3, "traces/canneal_big3.champsimtrace")
*** Reached end of trace: (0, "traces/canneal_big0.champsimtrace")
*** Reached end of trace: (10, "traces/canneal_big0.champsimtrace")
*** Reached end of trace: (15, "traces/canneal_big0.champsimtrace")
*** Reached end of trace: (5, "traces/canneal_big0.champsimtrace")
*** Reached end of trace: (7, "traces/canneal_big2.champsimtrace")
*** Reached end of trace: (2, "traces/canneal_big2.champsimtrace")
*** Reached end of trace: (12, "traces/canneal_big2.champsimtrace")
*** Reached end of trace: (9, "traces/canneal_big4.champsimtrace")
*** Reached end of trace: (4, "traces/canneal_big4.champsimtrace")
*** Reached end of trace: (14, "traces/canneal_big4.champsimtrace")
*** Reached end of trace: (8, "traces/canneal_big3.champsimtrace")
*** Reached end of trace: (13, "traces/canneal_big3.champsimtrace")
*** Reached end of trace: (3, "traces/canneal_big3.champsimtrace")
Heartbeat CPU 7 instructions: 40000001 cycles: 10005205 heartbeat IPC: 4 cumulative IPC: 3.998 (Simulation time: 01 hr 17 min 21 sec)
Heartbeat CPU 2 instructions: 40000001 cycles: 10005211 heartbeat IPC: 4 cumulative IPC: 3.998 (Simulation time: 01 hr 17 min 21 sec)
Heartbeat CPU 12 instructions: 40000001 cycles: 10005220 heartbeat IPC: 4 cumulative IPC: 3.998 (Simulation time: 01 hr 17 min 21 sec)
Heartbeat CPU 9 instructions: 40000000 cycles: 10005239 heartbeat IPC: 4 cumulative IPC: 3.998 (Simulation time: 01 hr 17 min 21 sec)
Heartbeat CPU 14 instructions: 40000001 cycles: 10005247 heartbeat IPC: 4 cumulative IPC: 3.998 (Simulation time: 01 hr 17 min 21 sec)
Heartbeat CPU 4 instructions: 40000003 cycles: 10005248 heartbeat IPC: 4 cumulative IPC: 3.998 (Simulation time: 01 hr 17 min 21 sec)
Heartbeat CPU 8 instructions: 40000002 cycles: 10005259 heartbeat IPC: 4 cumulative IPC: 3.998 (Simulation time: 01 hr 17 min 21 sec)
Heartbeat CPU 13 instructions: 40000001 cycles: 10005263 heartbeat IPC: 4 cumulative IPC: 3.998 (Simulation time: 01 hr 17 min 21 sec)
Heartbeat CPU 3 instructions: 40000001 cycles: 10005264 heartbeat IPC: 4 cumulative IPC: 3.998 (Simulation time: 01 hr 17 min 21 sec)
*** Reached end of trace: (11, "traces/canneal_big1.champsimtrace")
*** Reached end of trace: (1, "traces/canneal_big1.champsimtrace")
*** Reached end of trace: (6, "traces/canneal_big1.champsimtrace")
*** Reached end of trace: (7, "traces/canneal_big2.champsimtrace")
*** Reached end of trace: (2, "traces/canneal_big2.champsimtrace")
*** Reached end of trace: (12, "traces/canneal_big2.champsimtrace")
*** Reached end of trace: (9, "traces/canneal_big4.champsimtrace")
*** Reached end of trace: (14, "traces/canneal_big4.champsimtrace")
*** Reached end of trace: (4, "traces/canneal_big4.champsimtrace")
*** Reached end of trace: (8, "traces/canneal_big3.champsimtrace")
*** Reached end of trace: (13, "traces/canneal_big3.champsimtrace")
*** Reached end of trace: (3, "traces/canneal_big3.champsimtrace")
*** Reached end of trace: (0, "traces/canneal_big0.champsimtrace")
*** Reached end of trace: (10, "traces/canneal_big0.champsimtrace")
*** Reached end of trace: (15, "traces/canneal_big0.champsimtrace")
Heartbeat CPU 0 instructions: 30000009 cycles: 11777098 heartbeat IPC: 2.6 cumulative IPC: 2.547 (Simulation time: 01 hr 28 min 27 sec)
Heartbeat CPU 10 instructions: 30000009 cycles: 11777218 heartbeat IPC: 2.6 cumulative IPC: 2.547 (Simulation time: 01 hr 28 min 27 sec)
Heartbeat CPU 15 instructions: 30000009 cycles: 11777265 heartbeat IPC: 2.6 cumulative IPC: 2.547 (Simulation time: 01 hr 28 min 27 sec)
*** Reached end of trace: (5, "traces/canneal_big0.champsimtrace")
Heartbeat CPU 5 instructions: 30000009 cycles: 11797843 heartbeat IPC: 2.594 cumulative IPC: 2.543 (Simulation time: 01 hr 28 min 36 sec)
*** Reached end of trace: (7, "traces/canneal_big2.champsimtrace")
*** Reached end of trace: (2, "traces/canneal_big2.champsimtrace")
*** Reached end of trace: (12, "traces/canneal_big2.champsimtrace")
*** Reached end of trace: (9, "traces/canneal_big4.champsimtrace")
*** Reached end of trace: (14, "traces/canneal_big4.champsimtrace")
*** Reached end of trace: (4, "traces/canneal_big4.champsimtrace")
*** Reached end of trace: (8, "traces/canneal_big3.champsimtrace")
*** Reached end of trace: (13, "traces/canneal_big3.champsimtrace")
*** Reached end of trace: (3, "traces/canneal_big3.champsimtrace")
Heartbeat CPU 7 instructions: 50000001 cycles: 12505205 heartbeat IPC: 4 cumulative IPC: 3.998 (Simulation time: 01 hr 33 min 19 sec)
Warmup finished CPU 7 instructions: 50000001 cycles: 12505205 cumulative IPC: 3.998 (Simulation time: 01 hr 33 min 19 sec)
Heartbeat CPU 2 instructions: 50000001 cycles: 12505211 heartbeat IPC: 4 cumulative IPC: 3.998 (Simulation time: 01 hr 33 min 19 sec)
Warmup finished CPU 2 instructions: 50000001 cycles: 12505211 cumulative IPC: 3.998 (Simulation time: 01 hr 33 min 19 sec)
Heartbeat CPU 12 instructions: 50000001 cycles: 12505220 heartbeat IPC: 4 cumulative IPC: 3.998 (Simulation time: 01 hr 33 min 19 sec)
Warmup finished CPU 12 instructions: 50000001 cycles: 12505220 cumulative IPC: 3.998 (Simulation time: 01 hr 33 min 19 sec)
Heartbeat CPU 9 instructions: 50000000 cycles: 12505239 heartbeat IPC: 4 cumulative IPC: 3.998 (Simulation time: 01 hr 33 min 19 sec)
Warmup finished CPU 9 instructions: 50000000 cycles: 12505239 cumulative IPC: 3.998 (Simulation time: 01 hr 33 min 19 sec)
Heartbeat CPU 14 instructions: 50000001 cycles: 12505247 heartbeat IPC: 4 cumulative IPC: 3.998 (Simulation time: 01 hr 33 min 19 sec)
Warmup finished CPU 14 instructions: 50000001 cycles: 12505247 cumulative IPC: 3.998 (Simulation time: 01 hr 33 min 19 sec)
Heartbeat CPU 4 instructions: 50000003 cycles: 12505248 heartbeat IPC: 4 cumulative IPC: 3.998 (Simulation time: 01 hr 33 min 19 sec)
Warmup finished CPU 4 instructions: 50000003 cycles: 12505248 cumulative IPC: 3.998 (Simulation time: 01 hr 33 min 19 sec)
Heartbeat CPU 8 instructions: 50000002 cycles: 12505259 heartbeat IPC: 4 cumulative IPC: 3.998 (Simulation time: 01 hr 33 min 19 sec)
Warmup finished CPU 8 instructions: 50000002 cycles: 12505259 cumulative IPC: 3.998 (Simulation time: 01 hr 33 min 19 sec)
Heartbeat CPU 13 instructions: 50000001 cycles: 12505263 heartbeat IPC: 4 cumulative IPC: 3.998 (Simulation time: 01 hr 33 min 19 sec)
Warmup finished CPU 13 instructions: 50000001 cycles: 12505263 cumulative IPC: 3.998 (Simulation time: 01 hr 33 min 19 sec)
Heartbeat CPU 3 instructions: 50000001 cycles: 12505264 heartbeat IPC: 4 cumulative IPC: 3.998 (Simulation time: 01 hr 33 min 19 sec)
Warmup finished CPU 3 instructions: 50000001 cycles: 12505264 cumulative IPC: 3.998 (Simulation time: 01 hr 33 min 19 sec)
*** Reached end of trace: (11, "traces/canneal_big1.champsimtrace")
Heartbeat CPU 11 instructions: 20000004 cycles: 13551049 heartbeat IPC: 1.756 cumulative IPC: 1.476 (Simulation time: 01 hr 40 min 13 sec)
*** Reached end of trace: (1, "traces/canneal_big1.champsimtrace")
Heartbeat CPU 1 instructions: 20000004 cycles: 13562897 heartbeat IPC: 1.755 cumulative IPC: 1.475 (Simulation time: 01 hr 40 min 18 sec)
*** Reached end of trace: (6, "traces/canneal_big1.champsimtrace")
Heartbeat CPU 6 instructions: 20000004 cycles: 13622701 heartbeat IPC: 1.746 cumulative IPC: 1.468 (Simulation time: 01 hr 40 min 41 sec)
*** Reached end of trace: (0, "traces/canneal_big0.champsimtrace")
*** Reached end of trace: (10, "traces/canneal_big0.champsimtrace")
*** Reached end of trace: (15, "traces/canneal_big0.champsimtrace")
*** Reached end of trace: (5, "traces/canneal_big0.champsimtrace")
*** Reached end of trace: (7, "traces/canneal_big2.champsimtrace")
*** Reached end of trace: (2, "traces/canneal_big2.champsimtrace")
*** Reached end of trace: (12, "traces/canneal_big2.champsimtrace")
*** Reached end of trace: (9, "traces/canneal_big4.champsimtrace")
*** Reached end of trace: (4, "traces/canneal_big4.champsimtrace")
*** Reached end of trace: (14, "traces/canneal_big4.champsimtrace")
*** Reached end of trace: (8, "traces/canneal_big3.champsimtrace")
*** Reached end of trace: (13, "traces/canneal_big3.champsimtrace")
*** Reached end of trace: (3, "traces/canneal_big3.champsimtrace")
*** Reached end of trace: (7, "traces/canneal_big2.champsimtrace")
*** Reached end of trace: (2, "traces/canneal_big2.champsimtrace")
*** Reached end of trace: (12, "traces/canneal_big2.champsimtrace")
*** Reached end of trace: (9, "traces/canneal_big4.champsimtrace")
*** Reached end of trace: (14, "traces/canneal_big4.champsimtrace")
*** Reached end of trace: (4, "traces/canneal_big4.champsimtrace")
*** Reached end of trace: (8, "traces/canneal_big3.champsimtrace")
*** Reached end of trace: (13, "traces/canneal_big3.champsimtrace")
*** Reached end of trace: (3, "traces/canneal_big3.champsimtrace")
Heartbeat CPU 7 instructions: 60000001 cycles: 15005205 heartbeat IPC: 4 cumulative IPC: 3.999 (Simulation time: 01 hr 49 min 14 sec)
Heartbeat CPU 2 instructions: 60000001 cycles: 15005211 heartbeat IPC: 4 cumulative IPC: 3.999 (Simulation time: 01 hr 49 min 14 sec)
Heartbeat CPU 12 instructions: 60000001 cycles: 15005220 heartbeat IPC: 4 cumulative IPC: 3.999 (Simulation time: 01 hr 49 min 14 sec)
Heartbeat CPU 9 instructions: 60000000 cycles: 15005239 heartbeat IPC: 4 cumulative IPC: 3.999 (Simulation time: 01 hr 49 min 14 sec)
Heartbeat CPU 14 instructions: 60000001 cycles: 15005247 heartbeat IPC: 4 cumulative IPC: 3.999 (Simulation time: 01 hr 49 min 14 sec)
Heartbeat CPU 4 instructions: 60000003 cycles: 15005248 heartbeat IPC: 4 cumulative IPC: 3.999 (Simulation time: 01 hr 49 min 14 sec)
Heartbeat CPU 8 instructions: 60000002 cycles: 15005259 heartbeat IPC: 4 cumulative IPC: 3.999 (Simulation time: 01 hr 49 min 14 sec)
Heartbeat CPU 13 instructions: 60000001 cycles: 15005263 heartbeat IPC: 4 cumulative IPC: 3.999 (Simulation time: 01 hr 49 min 14 sec)
Heartbeat CPU 3 instructions: 60000001 cycles: 15005264 heartbeat IPC: 4 cumulative IPC: 3.999 (Simulation time: 01 hr 49 min 14 sec)
*** Reached end of trace: (0, "traces/canneal_big0.champsimtrace")
*** Reached end of trace: (10, "traces/canneal_big0.champsimtrace")
*** Reached end of trace: (15, "traces/canneal_big0.champsimtrace")
Heartbeat CPU 0 instructions: 40000012 cycles: 15623249 heartbeat IPC: 2.6 cumulative IPC: 2.56 (Simulation time: 01 hr 53 min 06 sec)
Heartbeat CPU 10 instructions: 40000012 cycles: 15623399 heartbeat IPC: 2.6 cumulative IPC: 2.56 (Simulation time: 01 hr 53 min 06 sec)
Heartbeat CPU 15 instructions: 40000012 cycles: 15623425 heartbeat IPC: 2.6 cumulative IPC: 2.56 (Simulation time: 01 hr 53 min 06 sec)
*** Reached end of trace: (5, "traces/canneal_big0.champsimtrace")
Heartbeat CPU 5 instructions: 40000012 cycles: 15653124 heartbeat IPC: 2.594 cumulative IPC: 2.555 (Simulation time: 01 hr 53 min 16 sec)
*** Reached end of trace: (7, "traces/canneal_big2.champsimtrace")
*** Reached end of trace: (2, "traces/canneal_big2.champsimtrace")
*** Reached end of trace: (12, "traces/canneal_big2.champsimtrace")
*** Reached end of trace: (9, "traces/canneal_big4.champsimtrace")
*** Reached end of trace: (14, "traces/canneal_big4.champsimtrace")
*** Reached end of trace: (4, "traces/canneal_big4.champsimtrace")
*** Reached end of trace: (8, "traces/canneal_big3.champsimtrace")
*** Reached end of trace: (13, "traces/canneal_big3.champsimtrace")
*** Reached end of trace: (3, "traces/canneal_big3.champsimtrace")
*** Reached end of trace: (11, "traces/canneal_big1.champsimtrace")
*** Reached end of trace: (1, "traces/canneal_big1.champsimtrace")
*** Reached end of trace: (6, "traces/canneal_big1.champsimtrace")
*** Reached end of trace: (7, "traces/canneal_big2.champsimtrace")
*** Reached end of trace: (2, "traces/canneal_big2.champsimtrace")
*** Reached end of trace: (12, "traces/canneal_big2.champsimtrace")
*** Reached end of trace: (9, "traces/canneal_big4.champsimtrace")
*** Reached end of trace: (4, "traces/canneal_big4.champsimtrace")
*** Reached end of trace: (14, "traces/canneal_big4.champsimtrace")
*** Reached end of trace: (8, "traces/canneal_big3.champsimtrace")
*** Reached end of trace: (13, "traces/canneal_big3.champsimtrace")
*** Reached end of trace: (3, "traces/canneal_big3.champsimtrace")
Heartbeat CPU 7 instructions: 70000001 cycles: 17505205 heartbeat IPC: 4 cumulative IPC: 3.999 (Simulation time: 02 hr 04 min 21 sec)
Heartbeat CPU 2 instructions: 70000001 cycles: 17505211 heartbeat IPC: 4 cumulative IPC: 3.999 (Simulation time: 02 hr 04 min 21 sec)
Heartbeat CPU 12 instructions: 70000001 cycles: 17505220 heartbeat IPC: 4 cumulative IPC: 3.999 (Simulation time: 02 hr 04 min 21 sec)
Heartbeat CPU 9 instructions: 70000000 cycles: 17505239 heartbeat IPC: 4 cumulative IPC: 3.999 (Simulation time: 02 hr 04 min 21 sec)
Heartbeat CPU 14 instructions: 70000001 cycles: 17505247 heartbeat IPC: 4 cumulative IPC: 3.999 (Simulation time: 02 hr 04 min 21 sec)
Heartbeat CPU 4 instructions: 70000003 cycles: 17505248 heartbeat IPC: 4 cumulative IPC: 3.999 (Simulation time: 02 hr 04 min 21 sec)
Heartbeat CPU 8 instructions: 70000002 cycles: 17505259 heartbeat IPC: 4 cumulative IPC: 3.999 (Simulation time: 02 hr 04 min 21 sec)
Heartbeat CPU 13 instructions: 70000001 cycles: 17505263 heartbeat IPC: 4 cumulative IPC: 3.999 (Simulation time: 02 hr 04 min 21 sec)
Heartbeat CPU 3 instructions: 70000001 cycles: 17505264 heartbeat IPC: 4 cumulative IPC: 3.999 (Simulation time: 02 hr 04 min 21 sec)
*** Reached end of trace: (0, "traces/canneal_big0.champsimtrace")
*** Reached end of trace: (10, "traces/canneal_big0.champsimtrace")
*** Reached end of trace: (15, "traces/canneal_big0.champsimtrace")
*** Reached end of trace: (5, "traces/canneal_big0.champsimtrace")
*** Reached end of trace: (7, "traces/canneal_big2.champsimtrace")
*** Reached end of trace: (2, "traces/canneal_big2.champsimtrace")
*** Reached end of trace: (12, "traces/canneal_big2.champsimtrace")
*** Reached end of trace: (9, "traces/canneal_big4.champsimtrace")
*** Reached end of trace: (4, "traces/canneal_big4.champsimtrace")
*** Reached end of trace: (14, "traces/canneal_big4.champsimtrace")
*** Reached end of trace: (8, "traces/canneal_big3.champsimtrace")
*** Reached end of trace: (13, "traces/canneal_big3.champsimtrace")
*** Reached end of trace: (3, "traces/canneal_big3.champsimtrace")
*** Reached end of trace: (11, "traces/canneal_big1.champsimtrace")
Heartbeat CPU 11 instructions: 30000004 cycles: 19244330 heartbeat IPC: 1.756 cumulative IPC: 1.559 (Simulation time: 02 hr 15 min 30 sec)
*** Reached end of trace: (1, "traces/canneal_big1.champsimtrace")
Heartbeat CPU 1 instructions: 30000004 cycles: 19260983 heartbeat IPC: 1.755 cumulative IPC: 1.558 (Simulation time: 02 hr 15 min 36 sec)
*** Reached end of trace: (6, "traces/canneal_big1.champsimtrace")
Heartbeat CPU 6 instructions: 30000004 cycles: 19350022 heartbeat IPC: 1.746 cumulative IPC: 1.55 (Simulation time: 02 hr 16 min 08 sec)
*** Reached end of trace: (0, "traces/canneal_big0.champsimtrace")
*** Reached end of trace: (15, "traces/canneal_big0.champsimtrace")
*** Reached end of trace: (10, "traces/canneal_big0.champsimtrace")
Warmup finished CPU 0 instructions: 50000000 cycles: 19469472 cumulative IPC: 2.568 (Simulation time: 02 hr 16 min 51 sec)
Heartbeat CPU 0 instructions: 50000015 cycles: 19469475 heartbeat IPC: 2.6 cumulative IPC: 2.568 (Simulation time: 02 hr 16 min 51 sec)
Warmup finished CPU 15 instructions: 50000000 cycles: 19469563 cumulative IPC: 2.568 (Simulation time: 02 hr 16 min 52 sec)
Heartbeat CPU 15 instructions: 50000015 cycles: 19469566 heartbeat IPC: 2.6 cumulative IPC: 2.568 (Simulation time: 02 hr 16 min 52 sec)
Warmup finished CPU 10 instructions: 50000000 cycles: 19469567 cumulative IPC: 2.568 (Simulation time: 02 hr 16 min 52 sec)
Heartbeat CPU 10 instructions: 50000015 cycles: 19469570 heartbeat IPC: 2.6 cumulative IPC: 2.568 (Simulation time: 02 hr 16 min 52 sec)
*** Reached end of trace: (5, "traces/canneal_big0.champsimtrace")
Warmup finished CPU 5 instructions: 50000000 cycles: 19508407 cumulative IPC: 2.563 (Simulation time: 02 hr 17 min 09 sec)
Heartbeat CPU 5 instructions: 50000015 cycles: 19508410 heartbeat IPC: 2.594 cumulative IPC: 2.563 (Simulation time: 02 hr 17 min 09 sec)
*** Reached end of trace: (7, "traces/canneal_big2.champsimtrace")
*** Reached end of trace: (2, "traces/canneal_big2.champsimtrace")
*** Reached end of trace: (12, "traces/canneal_big2.champsimtrace")
*** Reached end of trace: (9, "traces/canneal_big4.champsimtrace")
*** Reached end of trace: (4, "traces/canneal_big4.champsimtrace")
*** Reached end of trace: (14, "traces/canneal_big4.champsimtrace")
*** Reached end of trace: (8, "traces/canneal_big3.champsimtrace")
*** Reached end of trace: (13, "traces/canneal_big3.champsimtrace")
*** Reached end of trace: (3, "traces/canneal_big3.champsimtrace")
Heartbeat CPU 7 instructions: 80000001 cycles: 20005205 heartbeat IPC: 4 cumulative IPC: 3.999 (Simulation time: 02 hr 20 min 19 sec)
Heartbeat CPU 2 instructions: 80000001 cycles: 20005211 heartbeat IPC: 4 cumulative IPC: 3.999 (Simulation time: 02 hr 20 min 19 sec)
Heartbeat CPU 12 instructions: 80000001 cycles: 20005220 heartbeat IPC: 4 cumulative IPC: 3.999 (Simulation time: 02 hr 20 min 19 sec)
Heartbeat CPU 9 instructions: 80000000 cycles: 20005239 heartbeat IPC: 4 cumulative IPC: 3.999 (Simulation time: 02 hr 20 min 19 sec)
Heartbeat CPU 14 instructions: 80000001 cycles: 20005247 heartbeat IPC: 4 cumulative IPC: 3.999 (Simulation time: 02 hr 20 min 19 sec)
Heartbeat CPU 4 instructions: 80000003 cycles: 20005248 heartbeat IPC: 4 cumulative IPC: 3.999 (Simulation time: 02 hr 20 min 19 sec)
Heartbeat CPU 8 instructions: 80000002 cycles: 20005259 heartbeat IPC: 4 cumulative IPC: 3.999 (Simulation time: 02 hr 20 min 19 sec)
Heartbeat CPU 13 instructions: 80000001 cycles: 20005263 heartbeat IPC: 4 cumulative IPC: 3.999 (Simulation time: 02 hr 20 min 19 sec)
Heartbeat CPU 3 instructions: 80000001 cycles: 20005264 heartbeat IPC: 4 cumulative IPC: 3.999 (Simulation time: 02 hr 20 min 19 sec)
*** Reached end of trace: (7, "traces/canneal_big2.champsimtrace")
*** Reached end of trace: (2, "traces/canneal_big2.champsimtrace")
*** Reached end of trace: (12, "traces/canneal_big2.champsimtrace")
*** Reached end of trace: (9, "traces/canneal_big4.champsimtrace")
*** Reached end of trace: (14, "traces/canneal_big4.champsimtrace")
*** Reached end of trace: (4, "traces/canneal_big4.champsimtrace")
*** Reached end of trace: (8, "traces/canneal_big3.champsimtrace")
*** Reached end of trace: (13, "traces/canneal_big3.champsimtrace")
*** Reached end of trace: (3, "traces/canneal_big3.champsimtrace")
*** Reached end of trace: (0, "traces/canneal_big0.champsimtrace")
*** Reached end of trace: (15, "traces/canneal_big0.champsimtrace")
*** Reached end of trace: (10, "traces/canneal_big0.champsimtrace")
*** Reached end of trace: (5, "traces/canneal_big0.champsimtrace")
*** Reached end of trace: (11, "traces/canneal_big1.champsimtrace")
*** Reached end of trace: (1, "traces/canneal_big1.champsimtrace")
*** Reached end of trace: (6, "traces/canneal_big1.champsimtrace")
*** Reached end of trace: (7, "traces/canneal_big2.champsimtrace")
*** Reached end of trace: (2, "traces/canneal_big2.champsimtrace")
*** Reached end of trace: (12, "traces/canneal_big2.champsimtrace")
*** Reached end of trace: (9, "traces/canneal_big4.champsimtrace")
*** Reached end of trace: (14, "traces/canneal_big4.champsimtrace")
*** Reached end of trace: (4, "traces/canneal_big4.champsimtrace")
*** Reached end of trace: (8, "traces/canneal_big3.champsimtrace")
*** Reached end of trace: (13, "traces/canneal_big3.champsimtrace")
*** Reached end of trace: (3, "traces/canneal_big3.champsimtrace")
Heartbeat CPU 7 instructions: 90000001 cycles: 22505205 heartbeat IPC: 4 cumulative IPC: 3.999 (Simulation time: 02 hr 36 min 01 sec)
Heartbeat CPU 2 instructions: 90000001 cycles: 22505211 heartbeat IPC: 4 cumulative IPC: 3.999 (Simulation time: 02 hr 36 min 01 sec)
Heartbeat CPU 12 instructions: 90000001 cycles: 22505220 heartbeat IPC: 4 cumulative IPC: 3.999 (Simulation time: 02 hr 36 min 01 sec)
Heartbeat CPU 9 instructions: 90000000 cycles: 22505239 heartbeat IPC: 4 cumulative IPC: 3.999 (Simulation time: 02 hr 36 min 01 sec)
Heartbeat CPU 14 instructions: 90000001 cycles: 22505247 heartbeat IPC: 4 cumulative IPC: 3.999 (Simulation time: 02 hr 36 min 01 sec)
Heartbeat CPU 4 instructions: 90000003 cycles: 22505248 heartbeat IPC: 4 cumulative IPC: 3.999 (Simulation time: 02 hr 36 min 01 sec)
Heartbeat CPU 8 instructions: 90000002 cycles: 22505259 heartbeat IPC: 4 cumulative IPC: 3.999 (Simulation time: 02 hr 36 min 01 sec)
Heartbeat CPU 13 instructions: 90000001 cycles: 22505263 heartbeat IPC: 4 cumulative IPC: 3.999 (Simulation time: 02 hr 36 min 01 sec)
Heartbeat CPU 3 instructions: 90000001 cycles: 22505264 heartbeat IPC: 4 cumulative IPC: 3.999 (Simulation time: 02 hr 36 min 01 sec)
*** Reached end of trace: (0, "traces/canneal_big0.champsimtrace")
*** Reached end of trace: (15, "traces/canneal_big0.champsimtrace")
*** Reached end of trace: (10, "traces/canneal_big0.champsimtrace")
Heartbeat CPU 0 instructions: 60000018 cycles: 23315626 heartbeat IPC: 2.6 cumulative IPC: 2.573 (Simulation time: 02 hr 40 min 50 sec)
Heartbeat CPU 15 instructions: 60000018 cycles: 23315707 heartbeat IPC: 2.6 cumulative IPC: 2.573 (Simulation time: 02 hr 40 min 50 sec)
Heartbeat CPU 10 instructions: 60000018 cycles: 23315771 heartbeat IPC: 2.6 cumulative IPC: 2.573 (Simulation time: 02 hr 40 min 50 sec)
*** Reached end of trace: (5, "traces/canneal_big0.champsimtrace")
Heartbeat CPU 5 instructions: 60000018 cycles: 23363631 heartbeat IPC: 2.594 cumulative IPC: 2.568 (Simulation time: 02 hr 41 min 11 sec)
*** Reached end of trace: (7, "traces/canneal_big2.champsimtrace")
*** Reached end of trace: (2, "traces/canneal_big2.champsimtrace")
*** Reached end of trace: (12, "traces/canneal_big2.champsimtrace")
*** Reached end of trace: (9, "traces/canneal_big4.champsimtrace")
*** Reached end of trace: (4, "traces/canneal_big4.champsimtrace")
*** Reached end of trace: (14, "traces/canneal_big4.champsimtrace")
*** Reached end of trace: (8, "traces/canneal_big3.champsimtrace")
*** Reached end of trace: (13, "traces/canneal_big3.champsimtrace")
*** Reached end of trace: (3, "traces/canneal_big3.champsimtrace")
*** Reached end of trace: (11, "traces/canneal_big1.champsimtrace")
Heartbeat CPU 11 instructions: 40000006 cycles: 24937632 heartbeat IPC: 1.756 cumulative IPC: 1.604 (Simulation time: 02 hr 51 min 25 sec)
*** Reached end of trace: (1, "traces/canneal_big1.champsimtrace")
Heartbeat CPU 1 instructions: 40000006 cycles: 24959098 heartbeat IPC: 1.755 cumulative IPC: 1.603 (Simulation time: 02 hr 51 min 34 sec)
*** Reached end of trace: (7, "traces/canneal_big2.champsimtrace")
*** Reached end of trace: (2, "traces/canneal_big2.champsimtrace")
*** Reached end of trace: (12, "traces/canneal_big2.champsimtrace")
*** Reached end of trace: (9, "traces/canneal_big4.champsimtrace")
*** Reached end of trace: (14, "traces/canneal_big4.champsimtrace")
*** Reached end of trace: (4, "traces/canneal_big4.champsimtrace")
*** Reached end of trace: (8, "traces/canneal_big3.champsimtrace")
*** Reached end of trace: (13, "traces/canneal_big3.champsimtrace")
*** Reached end of trace: (3, "traces/canneal_big3.champsimtrace")
Heartbeat CPU 7 instructions: 100000001 cycles: 25005205 heartbeat IPC: 4 cumulative IPC: 3.999 (Simulation time: 02 hr 51 min 53 sec)
Heartbeat CPU 2 instructions: 100000001 cycles: 25005211 heartbeat IPC: 4 cumulative IPC: 3.999 (Simulation time: 02 hr 51 min 53 sec)
Heartbeat CPU 12 instructions: 100000001 cycles: 25005220 heartbeat IPC: 4 cumulative IPC: 3.999 (Simulation time: 02 hr 51 min 53 sec)
Heartbeat CPU 9 instructions: 100000000 cycles: 25005239 heartbeat IPC: 4 cumulative IPC: 3.999 (Simulation time: 02 hr 51 min 53 sec)
Heartbeat CPU 14 instructions: 100000001 cycles: 25005247 heartbeat IPC: 4 cumulative IPC: 3.999 (Simulation time: 02 hr 51 min 53 sec)
Heartbeat CPU 4 instructions: 100000003 cycles: 25005248 heartbeat IPC: 4 cumulative IPC: 3.999 (Simulation time: 02 hr 51 min 53 sec)
Heartbeat CPU 8 instructions: 100000002 cycles: 25005259 heartbeat IPC: 4 cumulative IPC: 3.999 (Simulation time: 02 hr 51 min 53 sec)
Heartbeat CPU 13 instructions: 100000001 cycles: 25005263 heartbeat IPC: 4 cumulative IPC: 3.999 (Simulation time: 02 hr 51 min 53 sec)
Heartbeat CPU 3 instructions: 100000001 cycles: 25005264 heartbeat IPC: 4 cumulative IPC: 3.999 (Simulation time: 02 hr 51 min 53 sec)
*** Reached end of trace: (6, "traces/canneal_big1.champsimtrace")
Heartbeat CPU 6 instructions: 40000006 cycles: 25077341 heartbeat IPC: 1.746 cumulative IPC: 1.595 (Simulation time: 02 hr 52 min 23 sec)
*** Reached end of trace: (0, "traces/canneal_big0.champsimtrace")
*** Reached end of trace: (15, "traces/canneal_big0.champsimtrace")
*** Reached end of trace: (10, "traces/canneal_big0.champsimtrace")
*** Reached end of trace: (5, "traces/canneal_big0.champsimtrace")
*** Reached end of trace: (7, "traces/canneal_big2.champsimtrace")
*** Reached end of trace: (2, "traces/canneal_big2.champsimtrace")
*** Reached end of trace: (12, "traces/canneal_big2.champsimtrace")
*** Reached end of trace: (9, "traces/canneal_big4.champsimtrace")
*** Reached end of trace: (14, "traces/canneal_big4.champsimtrace")
*** Reached end of trace: (4, "traces/canneal_big4.champsimtrace")
*** Reached end of trace: (8, "traces/canneal_big3.champsimtrace")
*** Reached end of trace: (13, "traces/canneal_big3.champsimtrace")
*** Reached end of trace: (3, "traces/canneal_big3.champsimtrace")
*** Reached end of trace: (0, "traces/canneal_big0.champsimtrace")
*** Reached end of trace: (15, "traces/canneal_big0.champsimtrace")
*** Reached end of trace: (10, "traces/canneal_big0.champsimtrace")
Heartbeat CPU 0 instructions: 70000021 cycles: 27161777 heartbeat IPC: 2.6 cumulative IPC: 2.577 (Simulation time: 03 hr 05 min 27 sec)
Heartbeat CPU 15 instructions: 70000021 cycles: 27161848 heartbeat IPC: 2.6 cumulative IPC: 2.577 (Simulation time: 03 hr 05 min 27 sec)
Heartbeat CPU 10 instructions: 70000021 cycles: 27161952 heartbeat IPC: 2.6 cumulative IPC: 2.577 (Simulation time: 03 hr 05 min 28 sec)
*** Reached end of trace: (5, "traces/canneal_big0.champsimtrace")
Heartbeat CPU 5 instructions: 70000021 cycles: 27218912 heartbeat IPC: 2.594 cumulative IPC: 2.572 (Simulation time: 03 hr 05 min 50 sec)
*** Reached end of trace: (7, "traces/canneal_big2.champsimtrace")
*** Reached end of trace: (2, "traces/canneal_big2.champsimtrace")
*** Reached end of trace: (12, "traces/canneal_big2.champsimtrace")
*** Reached end of trace: (9, "traces/canneal_big4.champsimtrace")
*** Reached end of trace: (4, "traces/canneal_big4.champsimtrace")
*** Reached end of trace: (14, "traces/canneal_big4.champsimtrace")
*** Reached end of trace: (8, "traces/canneal_big3.champsimtrace")
*** Reached end of trace: (13, "traces/canneal_big3.champsimtrace")
*** Reached end of trace: (3, "traces/canneal_big3.champsimtrace")
Heartbeat CPU 7 instructions: 110000001 cycles: 27505205 heartbeat IPC: 4 cumulative IPC: 3.999 (Simulation time: 03 hr 07 min 51 sec)
Heartbeat CPU 2 instructions: 110000001 cycles: 27505211 heartbeat IPC: 4 cumulative IPC: 3.999 (Simulation time: 03 hr 07 min 51 sec)
Heartbeat CPU 12 instructions: 110000001 cycles: 27505220 heartbeat IPC: 4 cumulative IPC: 3.999 (Simulation time: 03 hr 07 min 51 sec)
Heartbeat CPU 9 instructions: 110000000 cycles: 27505239 heartbeat IPC: 4 cumulative IPC: 3.999 (Simulation time: 03 hr 07 min 51 sec)
Heartbeat CPU 14 instructions: 110000001 cycles: 27505247 heartbeat IPC: 4 cumulative IPC: 3.999 (Simulation time: 03 hr 07 min 51 sec)
Heartbeat CPU 4 instructions: 110000003 cycles: 27505248 heartbeat IPC: 4 cumulative IPC: 3.999 (Simulation time: 03 hr 07 min 51 sec)
Heartbeat CPU 8 instructions: 110000002 cycles: 27505259 heartbeat IPC: 4 cumulative IPC: 3.999 (Simulation time: 03 hr 07 min 51 sec)
Heartbeat CPU 13 instructions: 110000001 cycles: 27505263 heartbeat IPC: 4 cumulative IPC: 3.999 (Simulation time: 03 hr 07 min 51 sec)
Heartbeat CPU 3 instructions: 110000001 cycles: 27505264 heartbeat IPC: 4 cumulative IPC: 3.999 (Simulation time: 03 hr 07 min 51 sec)
*** Reached end of trace: (11, "traces/canneal_big1.champsimtrace")
*** Reached end of trace: (1, "traces/canneal_big1.champsimtrace")
*** Reached end of trace: (6, "traces/canneal_big1.champsimtrace")
*** Reached end of trace: (7, "traces/canneal_big2.champsimtrace")
*** Reached end of trace: (2, "traces/canneal_big2.champsimtrace")
*** Reached end of trace: (12, "traces/canneal_big2.champsimtrace")
*** Reached end of trace: (9, "traces/canneal_big4.champsimtrace")
*** Reached end of trace: (4, "traces/canneal_big4.champsimtrace")
*** Reached end of trace: (14, "traces/canneal_big4.champsimtrace")
*** Reached end of trace: (8, "traces/canneal_big3.champsimtrace")
*** Reached end of trace: (13, "traces/canneal_big3.champsimtrace")
*** Reached end of trace: (3, "traces/canneal_big3.champsimtrace")
*** Reached end of trace: (0, "traces/canneal_big0.champsimtrace")
*** Reached end of trace: (15, "traces/canneal_big0.champsimtrace")
*** Reached end of trace: (10, "traces/canneal_big0.champsimtrace")
*** Reached end of trace: (5, "traces/canneal_big0.champsimtrace")
*** Reached end of trace: (7, "traces/canneal_big2.champsimtrace")
*** Reached end of trace: (2, "traces/canneal_big2.champsimtrace")
*** Reached end of trace: (12, "traces/canneal_big2.champsimtrace")
*** Reached end of trace: (9, "traces/canneal_big4.champsimtrace")
*** Reached end of trace: (4, "traces/canneal_big4.champsimtrace")
*** Reached end of trace: (14, "traces/canneal_big4.champsimtrace")
*** Reached end of trace: (8, "traces/canneal_big3.champsimtrace")
*** Reached end of trace: (13, "traces/canneal_big3.champsimtrace")
*** Reached end of trace: (3, "traces/canneal_big3.champsimtrace")
Heartbeat CPU 7 instructions: 120000001 cycles: 30005205 heartbeat IPC: 4 cumulative IPC: 3.999 (Simulation time: 03 hr 23 min 30 sec)
Heartbeat CPU 2 instructions: 120000001 cycles: 30005211 heartbeat IPC: 4 cumulative IPC: 3.999 (Simulation time: 03 hr 23 min 30 sec)
Heartbeat CPU 12 instructions: 120000001 cycles: 30005220 heartbeat IPC: 4 cumulative IPC: 3.999 (Simulation time: 03 hr 23 min 30 sec)
Heartbeat CPU 9 instructions: 120000000 cycles: 30005239 heartbeat IPC: 4 cumulative IPC: 3.999 (Simulation time: 03 hr 23 min 30 sec)
Heartbeat CPU 14 instructions: 120000001 cycles: 30005247 heartbeat IPC: 4 cumulative IPC: 3.999 (Simulation time: 03 hr 23 min 30 sec)
Heartbeat CPU 4 instructions: 120000003 cycles: 30005248 heartbeat IPC: 4 cumulative IPC: 3.999 (Simulation time: 03 hr 23 min 30 sec)
Heartbeat CPU 8 instructions: 120000002 cycles: 30005259 heartbeat IPC: 4 cumulative IPC: 3.999 (Simulation time: 03 hr 23 min 30 sec)
Heartbeat CPU 13 instructions: 120000001 cycles: 30005263 heartbeat IPC: 4 cumulative IPC: 3.999 (Simulation time: 03 hr 23 min 30 sec)
Heartbeat CPU 3 instructions: 120000001 cycles: 30005264 heartbeat IPC: 4 cumulative IPC: 3.999 (Simulation time: 03 hr 23 min 30 sec)
*** Reached end of trace: (11, "traces/canneal_big1.champsimtrace")
Warmup finished CPU 11 instructions: 50000000 cycles: 30630890 cumulative IPC: 1.632 (Simulation time: 03 hr 27 min 22 sec)
Heartbeat CPU 11 instructions: 50000008 cycles: 30630913 heartbeat IPC: 1.756 cumulative IPC: 1.632 (Simulation time: 03 hr 27 min 22 sec)
*** Reached end of trace: (1, "traces/canneal_big1.champsimtrace")
Warmup finished CPU 1 instructions: 50000000 cycles: 30657158 cumulative IPC: 1.631 (Simulation time: 03 hr 27 min 33 sec)
Heartbeat CPU 1 instructions: 50000008 cycles: 30657179 heartbeat IPC: 1.755 cumulative IPC: 1.631 (Simulation time: 03 hr 27 min 33 sec)
*** Reached end of trace: (6, "traces/canneal_big1.champsimtrace")
Warmup finished CPU 6 instructions: 50000000 cycles: 30804592 cumulative IPC: 1.623 (Simulation time: 03 hr 28 min 27 sec)
Warmup complete CPU 9 instructions: 123197412 cycles: 30804592 cumulative IPC: 3.999 (Simulation time: 03 hr 28 min 27 sec)
Warmup complete CPU 8 instructions: 123197334 cycles: 30804592 cumulative IPC: 3.999 (Simulation time: 03 hr 28 min 27 sec)
Warmup complete CPU 7 instructions: 123197549 cycles: 30804592 cumulative IPC: 3.999 (Simulation time: 03 hr 28 min 27 sec)
Warmup complete CPU 6 instructions: 50000000 cycles: 30804592 cumulative IPC: 1.623 (Simulation time: 03 hr 28 min 27 sec)
Warmup complete CPU 5 instructions: 79350039 cycles: 30804592 cumulative IPC: 2.576 (Simulation time: 03 hr 28 min 27 sec)
Warmup complete CPU 4 instructions: 123197379 cycles: 30804592 cumulative IPC: 3.999 (Simulation time: 03 hr 28 min 27 sec)
Warmup complete CPU 3 instructions: 123197313 cycles: 30804592 cumulative IPC: 3.999 (Simulation time: 03 hr 28 min 27 sec)
Warmup complete CPU 2 instructions: 123197525 cycles: 30804592 cumulative IPC: 3.999 (Simulation time: 03 hr 28 min 27 sec)
Warmup complete CPU 15 instructions: 79508749 cycles: 30804592 cumulative IPC: 2.581 (Simulation time: 03 hr 28 min 27 sec)
Warmup complete CPU 14 instructions: 123197381 cycles: 30804592 cumulative IPC: 3.999 (Simulation time: 03 hr 28 min 27 sec)
Warmup complete CPU 13 instructions: 123197317 cycles: 30804592 cumulative IPC: 3.999 (Simulation time: 03 hr 28 min 27 sec)
Warmup complete CPU 12 instructions: 123197489 cycles: 30804592 cumulative IPC: 3.999 (Simulation time: 03 hr 28 min 27 sec)
Warmup complete CPU 11 instructions: 50267126 cycles: 30804592 cumulative IPC: 1.632 (Simulation time: 03 hr 28 min 27 sec)
Warmup complete CPU 10 instructions: 79508489 cycles: 30804592 cumulative IPC: 2.581 (Simulation time: 03 hr 28 min 27 sec)
Warmup complete CPU 1 instructions: 50221691 cycles: 30804592 cumulative IPC: 1.63 (Simulation time: 03 hr 28 min 27 sec)
Warmup complete CPU 0 instructions: 79509009 cycles: 30804592 cumulative IPC: 2.581 (Simulation time: 03 hr 28 min 27 sec)
Heartbeat CPU 6 instructions: 50000008 cycles: 30805272 heartbeat IPC: 1.746 cumulative IPC: 0.01176 (Simulation time: 03 hr 28 min 27 sec)
*** Reached end of trace: (7, "traces/canneal_big2.champsimtrace")
*** Reached end of trace: (2, "traces/canneal_big2.champsimtrace")
*** Reached end of trace: (12, "traces/canneal_big2.champsimtrace")
*** Reached end of trace: (9, "traces/canneal_big4.champsimtrace")
*** Reached end of trace: (4, "traces/canneal_big4.champsimtrace")
*** Reached end of trace: (14, "traces/canneal_big4.champsimtrace")
*** Reached end of trace: (8, "traces/canneal_big3.champsimtrace")
*** Reached end of trace: (13, "traces/canneal_big3.champsimtrace")
*** Reached end of trace: (3, "traces/canneal_big3.champsimtrace")
*** Reached end of trace: (0, "traces/canneal_big0.champsimtrace")
*** Reached end of trace: (15, "traces/canneal_big0.champsimtrace")
*** Reached end of trace: (10, "traces/canneal_big0.champsimtrace")
Heartbeat CPU 0 instructions: 80000021 cycles: 31396790 heartbeat IPC: 2.361 cumulative IPC: 0.8291 (Simulation time: 03 hr 31 min 55 sec)
Heartbeat CPU 15 instructions: 80000021 cycles: 31396851 heartbeat IPC: 2.361 cumulative IPC: 0.8295 (Simulation time: 03 hr 31 min 55 sec)
Heartbeat CPU 10 instructions: 80000021 cycles: 31398337 heartbeat IPC: 2.361 cumulative IPC: 0.8279 (Simulation time: 03 hr 31 min 56 sec)
*** Reached end of trace: (5, "traces/canneal_big0.champsimtrace")
Heartbeat CPU 5 instructions: 80000024 cycles: 31505573 heartbeat IPC: 2.333 cumulative IPC: 0.9273 (Simulation time: 03 hr 32 min 34 sec)
*** Reached end of trace: (7, "traces/canneal_big2.champsimtrace")
*** Reached end of trace: (2, "traces/canneal_big2.champsimtrace")
*** Reached end of trace: (12, "traces/canneal_big2.champsimtrace")
*** Reached end of trace: (9, "traces/canneal_big4.champsimtrace")
*** Reached end of trace: (14, "traces/canneal_big4.champsimtrace")
*** Reached end of trace: (4, "traces/canneal_big4.champsimtrace")
*** Reached end of trace: (8, "traces/canneal_big3.champsimtrace")
*** Reached end of trace: (13, "traces/canneal_big3.champsimtrace")
*** Reached end of trace: (3, "traces/canneal_big3.champsimtrace")
Heartbeat CPU 7 instructions: 130000001 cycles: 32505205 heartbeat IPC: 4 cumulative IPC: 4 (Simulation time: 03 hr 38 min 53 sec)
Heartbeat CPU 2 instructions: 130000001 cycles: 32505211 heartbeat IPC: 4 cumulative IPC: 4 (Simulation time: 03 hr 38 min 53 sec)
Heartbeat CPU 12 instructions: 130000001 cycles: 32505220 heartbeat IPC: 4 cumulative IPC: 4 (Simulation time: 03 hr 38 min 53 sec)
Heartbeat CPU 9 instructions: 130000000 cycles: 32505239 heartbeat IPC: 4 cumulative IPC: 4 (Simulation time: 03 hr 38 min 53 sec)
Heartbeat CPU 14 instructions: 130000001 cycles: 32505247 heartbeat IPC: 4 cumulative IPC: 4 (Simulation time: 03 hr 38 min 53 sec)
Heartbeat CPU 4 instructions: 130000003 cycles: 32505248 heartbeat IPC: 4 cumulative IPC: 4 (Simulation time: 03 hr 38 min 53 sec)
Heartbeat CPU 8 instructions: 130000002 cycles: 32505259 heartbeat IPC: 4 cumulative IPC: 4 (Simulation time: 03 hr 38 min 53 sec)
Heartbeat CPU 13 instructions: 130000001 cycles: 32505263 heartbeat IPC: 4 cumulative IPC: 4 (Simulation time: 03 hr 38 min 53 sec)
Heartbeat CPU 3 instructions: 130000001 cycles: 32505264 heartbeat IPC: 4 cumulative IPC: 4 (Simulation time: 03 hr 38 min 53 sec)
*** Reached end of trace: (7, "traces/canneal_big2.champsimtrace")
*** Reached end of trace: (2, "traces/canneal_big2.champsimtrace")
*** Reached end of trace: (12, "traces/canneal_big2.champsimtrace")
*** Reached end of trace: (9, "traces/canneal_big4.champsimtrace")
*** Reached end of trace: (14, "traces/canneal_big4.champsimtrace")
*** Reached end of trace: (4, "traces/canneal_big4.champsimtrace")
*** Reached end of trace: (8, "traces/canneal_big3.champsimtrace")
*** Reached end of trace: (13, "traces/canneal_big3.champsimtrace")
*** Reached end of trace: (3, "traces/canneal_big3.champsimtrace")
*** Reached end of trace: (7, "traces/canneal_big2.champsimtrace")
*** Reached end of trace: (2, "traces/canneal_big2.champsimtrace")
*** Reached end of trace: (12, "traces/canneal_big2.champsimtrace")
*** Reached end of trace: (9, "traces/canneal_big4.champsimtrace")
*** Reached end of trace: (4, "traces/canneal_big4.champsimtrace")
*** Reached end of trace: (14, "traces/canneal_big4.champsimtrace")
*** Reached end of trace: (8, "traces/canneal_big3.champsimtrace")
*** Reached end of trace: (13, "traces/canneal_big3.champsimtrace")
*** Reached end of trace: (3, "traces/canneal_big3.champsimtrace")
Heartbeat CPU 7 instructions: 140000001 cycles: 35005205 heartbeat IPC: 4 cumulative IPC: 4 (Simulation time: 03 hr 53 min 19 sec)
Heartbeat CPU 2 instructions: 140000001 cycles: 35005211 heartbeat IPC: 4 cumulative IPC: 4 (Simulation time: 03 hr 53 min 19 sec)
Heartbeat CPU 12 instructions: 140000001 cycles: 35005220 heartbeat IPC: 4 cumulative IPC: 4 (Simulation time: 03 hr 53 min 19 sec)
Heartbeat CPU 9 instructions: 140000000 cycles: 35005239 heartbeat IPC: 4 cumulative IPC: 4 (Simulation time: 03 hr 53 min 19 sec)
Heartbeat CPU 14 instructions: 140000001 cycles: 35005247 heartbeat IPC: 4 cumulative IPC: 4 (Simulation time: 03 hr 53 min 19 sec)
Heartbeat CPU 4 instructions: 140000003 cycles: 35005248 heartbeat IPC: 4 cumulative IPC: 4 (Simulation time: 03 hr 53 min 19 sec)
Heartbeat CPU 8 instructions: 140000002 cycles: 35005259 heartbeat IPC: 4 cumulative IPC: 4 (Simulation time: 03 hr 53 min 19 sec)
Heartbeat CPU 13 instructions: 140000001 cycles: 35005263 heartbeat IPC: 4 cumulative IPC: 4 (Simulation time: 03 hr 53 min 19 sec)
Heartbeat CPU 3 instructions: 140000001 cycles: 35005264 heartbeat IPC: 4 cumulative IPC: 4 (Simulation time: 03 hr 53 min 19 sec)
*** Reached end of trace: (10, "traces/canneal_big0.champsimtrace")
*** Reached end of trace: (0, "traces/canneal_big0.champsimtrace")
*** Reached end of trace: (15, "traces/canneal_big0.champsimtrace")
*** Reached end of trace: (5, "traces/canneal_big0.champsimtrace")
*** Reached end of trace: (7, "traces/canneal_big2.champsimtrace")
*** Reached end of trace: (2, "traces/canneal_big2.champsimtrace")
*** Reached end of trace: (12, "traces/canneal_big2.champsimtrace")
*** Reached end of trace: (9, "traces/canneal_big4.champsimtrace")
*** Reached end of trace: (4, "traces/canneal_big4.champsimtrace")
*** Reached end of trace: (14, "traces/canneal_big4.champsimtrace")
*** Reached end of trace: (8, "traces/canneal_big3.champsimtrace")
*** Reached end of trace: (13, "traces/canneal_big3.champsimtrace")
*** Reached end of trace: (3, "traces/canneal_big3.champsimtrace")
*** Reached end of trace: (7, "traces/canneal_big2.champsimtrace")
*** Reached end of trace: (2, "traces/canneal_big2.champsimtrace")
*** Reached end of trace: (12, "traces/canneal_big2.champsimtrace")
*** Reached end of trace: (9, "traces/canneal_big4.champsimtrace")
*** Reached end of trace: (14, "traces/canneal_big4.champsimtrace")
*** Reached end of trace: (4, "traces/canneal_big4.champsimtrace")
*** Reached end of trace: (8, "traces/canneal_big3.champsimtrace")
*** Reached end of trace: (13, "traces/canneal_big3.champsimtrace")
*** Reached end of trace: (3, "traces/canneal_big3.champsimtrace")
Heartbeat CPU 7 instructions: 150000001 cycles: 37505205 heartbeat IPC: 4 cumulative IPC: 4 (Simulation time: 04 hr 08 min 20 sec)
Heartbeat CPU 2 instructions: 150000001 cycles: 37505211 heartbeat IPC: 4 cumulative IPC: 4 (Simulation time: 04 hr 08 min 20 sec)
Heartbeat CPU 12 instructions: 150000001 cycles: 37505220 heartbeat IPC: 4 cumulative IPC: 4 (Simulation time: 04 hr 08 min 20 sec)
Heartbeat CPU 9 instructions: 150000000 cycles: 37505239 heartbeat IPC: 4 cumulative IPC: 4 (Simulation time: 04 hr 08 min 20 sec)
Heartbeat CPU 14 instructions: 150000001 cycles: 37505247 heartbeat IPC: 4 cumulative IPC: 4 (Simulation time: 04 hr 08 min 20 sec)
Heartbeat CPU 4 instructions: 150000003 cycles: 37505248 heartbeat IPC: 4 cumulative IPC: 4 (Simulation time: 04 hr 08 min 20 sec)
Heartbeat CPU 8 instructions: 150000002 cycles: 37505259 heartbeat IPC: 4 cumulative IPC: 4 (Simulation time: 04 hr 08 min 20 sec)
Heartbeat CPU 13 instructions: 150000001 cycles: 37505263 heartbeat IPC: 4 cumulative IPC: 4 (Simulation time: 04 hr 08 min 20 sec)
Heartbeat CPU 3 instructions: 150000001 cycles: 37505264 heartbeat IPC: 4 cumulative IPC: 4 (Simulation time: 04 hr 08 min 20 sec)
*** Reached end of trace: (7, "traces/canneal_big2.champsimtrace")
*** Reached end of trace: (2, "traces/canneal_big2.champsimtrace")
*** Reached end of trace: (12, "traces/canneal_big2.champsimtrace")
*** Reached end of trace: (9, "traces/canneal_big4.champsimtrace")
*** Reached end of trace: (14, "traces/canneal_big4.champsimtrace")
*** Reached end of trace: (4, "traces/canneal_big4.champsimtrace")
*** Reached end of trace: (8, "traces/canneal_big3.champsimtrace")
*** Reached end of trace: (13, "traces/canneal_big3.champsimtrace")
*** Reached end of trace: (3, "traces/canneal_big3.champsimtrace")
*** Reached end of trace: (10, "traces/canneal_big0.champsimtrace")
Heartbeat CPU 10 instructions: 90000024 cycles: 39777729 heartbeat IPC: 1.193 cumulative IPC: 1.169 (Simulation time: 04 hr 22 min 08 sec)
*** Reached end of trace: (0, "traces/canneal_big0.champsimtrace")
Heartbeat CPU 0 instructions: 90000024 cycles: 39852756 heartbeat IPC: 1.183 cumulative IPC: 1.159 (Simulation time: 04 hr 22 min 35 sec)
*** Reached end of trace: (15, "traces/canneal_big0.champsimtrace")
Heartbeat CPU 15 instructions: 90000024 cycles: 39893232 heartbeat IPC: 1.177 cumulative IPC: 1.154 (Simulation time: 04 hr 22 min 50 sec)
*** Reached end of trace: (7, "traces/canneal_big2.champsimtrace")
*** Reached end of trace: (2, "traces/canneal_big2.champsimtrace")
*** Reached end of trace: (12, "traces/canneal_big2.champsimtrace")
*** Reached end of trace: (9, "traces/canneal_big4.champsimtrace")
*** Reached end of trace: (4, "traces/canneal_big4.champsimtrace")
*** Reached end of trace: (14, "traces/canneal_big4.champsimtrace")
*** Reached end of trace: (8, "traces/canneal_big3.champsimtrace")
*** Reached end of trace: (13, "traces/canneal_big3.champsimtrace")
*** Reached end of trace: (3, "traces/canneal_big3.champsimtrace")
Heartbeat CPU 7 instructions: 160000001 cycles: 40005205 heartbeat IPC: 4 cumulative IPC: 4 (Simulation time: 04 hr 23 min 26 sec)
Heartbeat CPU 2 instructions: 160000001 cycles: 40005211 heartbeat IPC: 4 cumulative IPC: 4 (Simulation time: 04 hr 23 min 26 sec)
Heartbeat CPU 12 instructions: 160000001 cycles: 40005220 heartbeat IPC: 4 cumulative IPC: 4 (Simulation time: 04 hr 23 min 26 sec)
Heartbeat CPU 9 instructions: 160000000 cycles: 40005239 heartbeat IPC: 4 cumulative IPC: 4 (Simulation time: 04 hr 23 min 26 sec)
Heartbeat CPU 14 instructions: 160000001 cycles: 40005247 heartbeat IPC: 4 cumulative IPC: 4 (Simulation time: 04 hr 23 min 26 sec)
Heartbeat CPU 4 instructions: 160000003 cycles: 40005248 heartbeat IPC: 4 cumulative IPC: 4 (Simulation time: 04 hr 23 min 26 sec)
Heartbeat CPU 8 instructions: 160000002 cycles: 40005259 heartbeat IPC: 4 cumulative IPC: 4 (Simulation time: 04 hr 23 min 26 sec)
Heartbeat CPU 13 instructions: 160000001 cycles: 40005263 heartbeat IPC: 4 cumulative IPC: 4 (Simulation time: 04 hr 23 min 26 sec)
Heartbeat CPU 3 instructions: 160000001 cycles: 40005264 heartbeat IPC: 4 cumulative IPC: 4 (Simulation time: 04 hr 23 min 26 sec)
*** Reached end of trace: (5, "traces/canneal_big0.champsimtrace")
Heartbeat CPU 5 instructions: 90000024 cycles: 40205399 heartbeat IPC: 1.149 cumulative IPC: 1.133 (Simulation time: 04 hr 24 min 32 sec)
*** Reached end of trace: (7, "traces/canneal_big2.champsimtrace")
*** Reached end of trace: (2, "traces/canneal_big2.champsimtrace")
*** Reached end of trace: (12, "traces/canneal_big2.champsimtrace")
*** Reached end of trace: (9, "traces/canneal_big4.champsimtrace")
*** Reached end of trace: (4, "traces/canneal_big4.champsimtrace")
*** Reached end of trace: (14, "traces/canneal_big4.champsimtrace")
*** Reached end of trace: (8, "traces/canneal_big3.champsimtrace")
*** Reached end of trace: (13, "traces/canneal_big3.champsimtrace")
*** Reached end of trace: (3, "traces/canneal_big3.champsimtrace")
*** Reached end of trace: (7, "traces/canneal_big2.champsimtrace")
*** Reached end of trace: (2, "traces/canneal_big2.champsimtrace")
*** Reached end of trace: (12, "traces/canneal_big2.champsimtrace")
*** Reached end of trace: (9, "traces/canneal_big4.champsimtrace")
*** Reached end of trace: (14, "traces/canneal_big4.champsimtrace")
*** Reached end of trace: (4, "traces/canneal_big4.champsimtrace")
*** Reached end of trace: (8, "traces/canneal_big3.champsimtrace")
*** Reached end of trace: (13, "traces/canneal_big3.champsimtrace")
*** Reached end of trace: (3, "traces/canneal_big3.champsimtrace")
Heartbeat CPU 7 instructions: 170000001 cycles: 42505205 heartbeat IPC: 4 cumulative IPC: 4 (Simulation time: 04 hr 37 min 53 sec)
Heartbeat CPU 2 instructions: 170000001 cycles: 42505211 heartbeat IPC: 4 cumulative IPC: 4 (Simulation time: 04 hr 37 min 53 sec)
Heartbeat CPU 12 instructions: 170000001 cycles: 42505220 heartbeat IPC: 4 cumulative IPC: 4 (Simulation time: 04 hr 37 min 53 sec)
Heartbeat CPU 9 instructions: 170000000 cycles: 42505239 heartbeat IPC: 4 cumulative IPC: 4 (Simulation time: 04 hr 37 min 53 sec)
Heartbeat CPU 14 instructions: 170000001 cycles: 42505247 heartbeat IPC: 4 cumulative IPC: 4 (Simulation time: 04 hr 37 min 53 sec)
Heartbeat CPU 4 instructions: 170000003 cycles: 42505248 heartbeat IPC: 4 cumulative IPC: 4 (Simulation time: 04 hr 37 min 53 sec)
Heartbeat CPU 8 instructions: 170000002 cycles: 42505259 heartbeat IPC: 4 cumulative IPC: 4 (Simulation time: 04 hr 37 min 53 sec)
Heartbeat CPU 13 instructions: 170000001 cycles: 42505263 heartbeat IPC: 4 cumulative IPC: 4 (Simulation time: 04 hr 37 min 53 sec)
Heartbeat CPU 3 instructions: 170000001 cycles: 42505264 heartbeat IPC: 4 cumulative IPC: 4 (Simulation time: 04 hr 37 min 53 sec)
*** Reached end of trace: (7, "traces/canneal_big2.champsimtrace")
*** Reached end of trace: (2, "traces/canneal_big2.champsimtrace")
*** Reached end of trace: (12, "traces/canneal_big2.champsimtrace")
*** Reached end of trace: (9, "traces/canneal_big4.champsimtrace")
*** Reached end of trace: (14, "traces/canneal_big4.champsimtrace")
*** Reached end of trace: (4, "traces/canneal_big4.champsimtrace")
*** Reached end of trace: (8, "traces/canneal_big3.champsimtrace")
*** Reached end of trace: (13, "traces/canneal_big3.champsimtrace")
*** Reached end of trace: (3, "traces/canneal_big3.champsimtrace")
*** Reached end of trace: (10, "traces/canneal_big0.champsimtrace")
*** Reached end of trace: (0, "traces/canneal_big0.champsimtrace")
*** Reached end of trace: (15, "traces/canneal_big0.champsimtrace")
*** Reached end of trace: (5, "traces/canneal_big0.champsimtrace")
*** Reached end of trace: (7, "traces/canneal_big2.champsimtrace")
*** Reached end of trace: (2, "traces/canneal_big2.champsimtrace")
*** Reached end of trace: (12, "traces/canneal_big2.champsimtrace")
*** Reached end of trace: (9, "traces/canneal_big4.champsimtrace")
*** Reached end of trace: (4, "traces/canneal_big4.champsimtrace")
*** Reached end of trace: (14, "traces/canneal_big4.champsimtrace")
*** Reached end of trace: (8, "traces/canneal_big3.champsimtrace")
*** Reached end of trace: (13, "traces/canneal_big3.champsimtrace")
*** Reached end of trace: (3, "traces/canneal_big3.champsimtrace")
Heartbeat CPU 7 instructions: 180000001 cycles: 45005205 heartbeat IPC: 4 cumulative IPC: 4 (Simulation time: 04 hr 52 min 25 sec)
Heartbeat CPU 2 instructions: 180000001 cycles: 45005211 heartbeat IPC: 4 cumulative IPC: 4 (Simulation time: 04 hr 52 min 25 sec)
Heartbeat CPU 12 instructions: 180000001 cycles: 45005220 heartbeat IPC: 4 cumulative IPC: 4 (Simulation time: 04 hr 52 min 25 sec)
Heartbeat CPU 9 instructions: 180000000 cycles: 45005239 heartbeat IPC: 4 cumulative IPC: 4 (Simulation time: 04 hr 52 min 25 sec)
Heartbeat CPU 14 instructions: 180000001 cycles: 45005247 heartbeat IPC: 4 cumulative IPC: 4 (Simulation time: 04 hr 52 min 25 sec)
Heartbeat CPU 4 instructions: 180000003 cycles: 45005248 heartbeat IPC: 4 cumulative IPC: 4 (Simulation time: 04 hr 52 min 25 sec)
Heartbeat CPU 8 instructions: 180000002 cycles: 45005259 heartbeat IPC: 4 cumulative IPC: 4 (Simulation time: 04 hr 52 min 25 sec)
Heartbeat CPU 13 instructions: 180000001 cycles: 45005263 heartbeat IPC: 4 cumulative IPC: 4 (Simulation time: 04 hr 52 min 25 sec)
Heartbeat CPU 3 instructions: 180000001 cycles: 45005264 heartbeat IPC: 4 cumulative IPC: 4 (Simulation time: 04 hr 52 min 25 sec)
*** Reached end of trace: (7, "traces/canneal_big2.champsimtrace")
*** Reached end of trace: (2, "traces/canneal_big2.champsimtrace")
*** Reached end of trace: (12, "traces/canneal_big2.champsimtrace")
*** Reached end of trace: (9, "traces/canneal_big4.champsimtrace")
*** Reached end of trace: (4, "traces/canneal_big4.champsimtrace")
*** Reached end of trace: (14, "traces/canneal_big4.champsimtrace")
*** Reached end of trace: (8, "traces/canneal_big3.champsimtrace")
*** Reached end of trace: (13, "traces/canneal_big3.champsimtrace")
*** Reached end of trace: (3, "traces/canneal_big3.champsimtrace")
*** Reached end of trace: (7, "traces/canneal_big2.champsimtrace")
*** Reached end of trace: (2, "traces/canneal_big2.champsimtrace")
*** Reached end of trace: (12, "traces/canneal_big2.champsimtrace")
*** Reached end of trace: (9, "traces/canneal_big4.champsimtrace")
*** Reached end of trace: (14, "traces/canneal_big4.champsimtrace")
*** Reached end of trace: (4, "traces/canneal_big4.champsimtrace")
*** Reached end of trace: (8, "traces/canneal_big3.champsimtrace")
*** Reached end of trace: (13, "traces/canneal_big3.champsimtrace")
*** Reached end of trace: (3, "traces/canneal_big3.champsimtrace")
Heartbeat CPU 7 instructions: 190000001 cycles: 47505205 heartbeat IPC: 4 cumulative IPC: 4 (Simulation time: 05 hr 06 min 57 sec)
Heartbeat CPU 2 instructions: 190000001 cycles: 47505211 heartbeat IPC: 4 cumulative IPC: 4 (Simulation time: 05 hr 06 min 57 sec)
Heartbeat CPU 12 instructions: 190000001 cycles: 47505220 heartbeat IPC: 4 cumulative IPC: 4 (Simulation time: 05 hr 06 min 57 sec)
Heartbeat CPU 9 instructions: 190000000 cycles: 47505239 heartbeat IPC: 4 cumulative IPC: 4 (Simulation time: 05 hr 06 min 57 sec)
Heartbeat CPU 14 instructions: 190000001 cycles: 47505247 heartbeat IPC: 4 cumulative IPC: 4 (Simulation time: 05 hr 06 min 57 sec)
Heartbeat CPU 4 instructions: 190000003 cycles: 47505248 heartbeat IPC: 4 cumulative IPC: 4 (Simulation time: 05 hr 06 min 57 sec)
Heartbeat CPU 8 instructions: 190000002 cycles: 47505259 heartbeat IPC: 4 cumulative IPC: 4 (Simulation time: 05 hr 06 min 57 sec)
Heartbeat CPU 13 instructions: 190000001 cycles: 47505263 heartbeat IPC: 4 cumulative IPC: 4 (Simulation time: 05 hr 06 min 57 sec)
Heartbeat CPU 3 instructions: 190000001 cycles: 47505264 heartbeat IPC: 4 cumulative IPC: 4 (Simulation time: 05 hr 06 min 57 sec)
*** Reached end of trace: (10, "traces/canneal_big0.champsimtrace")
Heartbeat CPU 10 instructions: 100000027 cycles: 48113717 heartbeat IPC: 1.2 cumulative IPC: 1.184 (Simulation time: 05 hr 10 min 24 sec)
*** Reached end of trace: (0, "traces/canneal_big0.champsimtrace")
Heartbeat CPU 0 instructions: 100000027 cycles: 48362905 heartbeat IPC: 1.175 cumulative IPC: 1.167 (Simulation time: 05 hr 11 min 48 sec)
*** Reached end of trace: (15, "traces/canneal_big0.champsimtrace")
Heartbeat CPU 15 instructions: 100000027 cycles: 48365973 heartbeat IPC: 1.18 cumulative IPC: 1.167 (Simulation time: 05 hr 11 min 49 sec)
*** Reached end of trace: (7, "traces/canneal_big2.champsimtrace")
*** Reached end of trace: (2, "traces/canneal_big2.champsimtrace")
*** Reached end of trace: (12, "traces/canneal_big2.champsimtrace")
*** Reached end of trace: (9, "traces/canneal_big4.champsimtrace")
*** Reached end of trace: (14, "traces/canneal_big4.champsimtrace")
*** Reached end of trace: (4, "traces/canneal_big4.champsimtrace")
*** Reached end of trace: (8, "traces/canneal_big3.champsimtrace")
*** Reached end of trace: (13, "traces/canneal_big3.champsimtrace")
*** Reached end of trace: (3, "traces/canneal_big3.champsimtrace")
*** Reached end of trace: (5, "traces/canneal_big0.champsimtrace")
Heartbeat CPU 5 instructions: 100000027 cycles: 48808725 heartbeat IPC: 1.162 cumulative IPC: 1.147 (Simulation time: 05 hr 14 min 28 sec)
*** Reached end of trace: (7, "traces/canneal_big2.champsimtrace")
*** Reached end of trace: (2, "traces/canneal_big2.champsimtrace")
*** Reached end of trace: (12, "traces/canneal_big2.champsimtrace")
*** Reached end of trace: (9, "traces/canneal_big4.champsimtrace")
*** Reached end of trace: (4, "traces/canneal_big4.champsimtrace")
*** Reached end of trace: (14, "traces/canneal_big4.champsimtrace")
*** Reached end of trace: (8, "traces/canneal_big3.champsimtrace")
*** Reached end of trace: (13, "traces/canneal_big3.champsimtrace")
*** Reached end of trace: (3, "traces/canneal_big3.champsimtrace")
Heartbeat CPU 7 instructions: 200000001 cycles: 50005205 heartbeat IPC: 4 cumulative IPC: 4 (Simulation time: 05 hr 21 min 20 sec)
Heartbeat CPU 2 instructions: 200000001 cycles: 50005211 heartbeat IPC: 4 cumulative IPC: 4 (Simulation time: 05 hr 21 min 20 sec)
Heartbeat CPU 12 instructions: 200000001 cycles: 50005220 heartbeat IPC: 4 cumulative IPC: 4 (Simulation time: 05 hr 21 min 20 sec)
Heartbeat CPU 9 instructions: 200000000 cycles: 50005239 heartbeat IPC: 4 cumulative IPC: 4 (Simulation time: 05 hr 21 min 20 sec)
Heartbeat CPU 14 instructions: 200000001 cycles: 50005247 heartbeat IPC: 4 cumulative IPC: 4 (Simulation time: 05 hr 21 min 20 sec)
Heartbeat CPU 4 instructions: 200000003 cycles: 50005248 heartbeat IPC: 4 cumulative IPC: 4 (Simulation time: 05 hr 21 min 20 sec)
Heartbeat CPU 8 instructions: 200000002 cycles: 50005259 heartbeat IPC: 4 cumulative IPC: 4 (Simulation time: 05 hr 21 min 20 sec)
Heartbeat CPU 13 instructions: 200000001 cycles: 50005263 heartbeat IPC: 4 cumulative IPC: 4 (Simulation time: 05 hr 21 min 20 sec)
Heartbeat CPU 3 instructions: 200000001 cycles: 50005264 heartbeat IPC: 4 cumulative IPC: 4 (Simulation time: 05 hr 21 min 20 sec)
*** Reached end of trace: (7, "traces/canneal_big2.champsimtrace")
*** Reached end of trace: (2, "traces/canneal_big2.champsimtrace")
*** Reached end of trace: (12, "traces/canneal_big2.champsimtrace")
*** Reached end of trace: (9, "traces/canneal_big4.champsimtrace")
*** Reached end of trace: (4, "traces/canneal_big4.champsimtrace")
*** Reached end of trace: (14, "traces/canneal_big4.champsimtrace")
*** Reached end of trace: (8, "traces/canneal_big3.champsimtrace")
*** Reached end of trace: (13, "traces/canneal_big3.champsimtrace")
*** Reached end of trace: (3, "traces/canneal_big3.champsimtrace")
*** Reached end of trace: (10, "traces/canneal_big0.champsimtrace")
*** Reached end of trace: (7, "traces/canneal_big2.champsimtrace")
*** Reached end of trace: (2, "traces/canneal_big2.champsimtrace")
*** Reached end of trace: (12, "traces/canneal_big2.champsimtrace")
*** Reached end of trace: (9, "traces/canneal_big4.champsimtrace")
*** Reached end of trace: (14, "traces/canneal_big4.champsimtrace")
*** Reached end of trace: (4, "traces/canneal_big4.champsimtrace")
*** Reached end of trace: (8, "traces/canneal_big3.champsimtrace")
*** Reached end of trace: (13, "traces/canneal_big3.champsimtrace")
*** Reached end of trace: (3, "traces/canneal_big3.champsimtrace")
Heartbeat CPU 7 instructions: 210000001 cycles: 52505205 heartbeat IPC: 4 cumulative IPC: 4 (Simulation time: 05 hr 36 min 02 sec)
Heartbeat CPU 2 instructions: 210000001 cycles: 52505211 heartbeat IPC: 4 cumulative IPC: 4 (Simulation time: 05 hr 36 min 02 sec)
Heartbeat CPU 12 instructions: 210000001 cycles: 52505220 heartbeat IPC: 4 cumulative IPC: 4 (Simulation time: 05 hr 36 min 02 sec)
Heartbeat CPU 9 instructions: 210000000 cycles: 52505239 heartbeat IPC: 4 cumulative IPC: 4 (Simulation time: 05 hr 36 min 02 sec)
Heartbeat CPU 14 instructions: 210000001 cycles: 52505247 heartbeat IPC: 4 cumulative IPC: 4 (Simulation time: 05 hr 36 min 02 sec)
Heartbeat CPU 4 instructions: 210000003 cycles: 52505248 heartbeat IPC: 4 cumulative IPC: 4 (Simulation time: 05 hr 36 min 02 sec)
Heartbeat CPU 8 instructions: 210000002 cycles: 52505259 heartbeat IPC: 4 cumulative IPC: 4 (Simulation time: 05 hr 36 min 02 sec)
Heartbeat CPU 13 instructions: 210000001 cycles: 52505263 heartbeat IPC: 4 cumulative IPC: 4 (Simulation time: 05 hr 36 min 02 sec)
Heartbeat CPU 3 instructions: 210000001 cycles: 52505264 heartbeat IPC: 4 cumulative IPC: 4 (Simulation time: 05 hr 36 min 02 sec)
*** Reached end of trace: (0, "traces/canneal_big0.champsimtrace")
*** Reached end of trace: (15, "traces/canneal_big0.champsimtrace")
*** Reached end of trace: (5, "traces/canneal_big0.champsimtrace")
*** Reached end of trace: (7, "traces/canneal_big2.champsimtrace")
*** Reached end of trace: (2, "traces/canneal_big2.champsimtrace")
*** Reached end of trace: (12, "traces/canneal_big2.champsimtrace")
*** Reached end of trace: (9, "traces/canneal_big4.champsimtrace")
*** Reached end of trace: (14, "traces/canneal_big4.champsimtrace")
*** Reached end of trace: (4, "traces/canneal_big4.champsimtrace")
*** Reached end of trace: (8, "traces/canneal_big3.champsimtrace")
*** Reached end of trace: (13, "traces/canneal_big3.champsimtrace")
*** Reached end of trace: (3, "traces/canneal_big3.champsimtrace")
*** Reached end of trace: (7, "traces/canneal_big2.champsimtrace")
*** Reached end of trace: (2, "traces/canneal_big2.champsimtrace")
*** Reached end of trace: (12, "traces/canneal_big2.champsimtrace")
*** Reached end of trace: (9, "traces/canneal_big4.champsimtrace")
*** Reached end of trace: (4, "traces/canneal_big4.champsimtrace")
*** Reached end of trace: (14, "traces/canneal_big4.champsimtrace")
*** Reached end of trace: (8, "traces/canneal_big3.champsimtrace")
*** Reached end of trace: (13, "traces/canneal_big3.champsimtrace")
*** Reached end of trace: (3, "traces/canneal_big3.champsimtrace")
Heartbeat CPU 7 instructions: 220000001 cycles: 55005205 heartbeat IPC: 4 cumulative IPC: 4 (Simulation time: 05 hr 51 min 02 sec)
Heartbeat CPU 2 instructions: 220000001 cycles: 55005211 heartbeat IPC: 4 cumulative IPC: 4 (Simulation time: 05 hr 51 min 02 sec)
Heartbeat CPU 12 instructions: 220000001 cycles: 55005220 heartbeat IPC: 4 cumulative IPC: 4 (Simulation time: 05 hr 51 min 02 sec)
Heartbeat CPU 9 instructions: 220000000 cycles: 55005239 heartbeat IPC: 4 cumulative IPC: 4 (Simulation time: 05 hr 51 min 02 sec)
Heartbeat CPU 14 instructions: 220000001 cycles: 55005247 heartbeat IPC: 4 cumulative IPC: 4 (Simulation time: 05 hr 51 min 02 sec)
Heartbeat CPU 4 instructions: 220000003 cycles: 55005248 heartbeat IPC: 4 cumulative IPC: 4 (Simulation time: 05 hr 51 min 02 sec)
Heartbeat CPU 8 instructions: 220000002 cycles: 55005259 heartbeat IPC: 4 cumulative IPC: 4 (Simulation time: 05 hr 51 min 02 sec)
Heartbeat CPU 13 instructions: 220000001 cycles: 55005263 heartbeat IPC: 4 cumulative IPC: 4 (Simulation time: 05 hr 51 min 02 sec)
Heartbeat CPU 3 instructions: 220000001 cycles: 55005264 heartbeat IPC: 4 cumulative IPC: 4 (Simulation time: 05 hr 51 min 02 sec)
Simulation finished CPU 9 instructions: 100000000 cycles: 25000000 cumulative IPC: 4 (Simulation time: 05 hr 55 min 56 sec)
Simulation finished CPU 8 instructions: 100000000 cycles: 25000000 cumulative IPC: 4 (Simulation time: 05 hr 55 min 56 sec)
Simulation finished CPU 7 instructions: 100000000 cycles: 25000000 cumulative IPC: 4 (Simulation time: 05 hr 55 min 56 sec)
Simulation finished CPU 4 instructions: 100000000 cycles: 25000000 cumulative IPC: 4 (Simulation time: 05 hr 55 min 56 sec)
Simulation finished CPU 3 instructions: 100000000 cycles: 25000000 cumulative IPC: 4 (Simulation time: 05 hr 55 min 56 sec)
Simulation finished CPU 2 instructions: 100000000 cycles: 25000000 cumulative IPC: 4 (Simulation time: 05 hr 55 min 56 sec)
Simulation finished CPU 14 instructions: 100000000 cycles: 25000000 cumulative IPC: 4 (Simulation time: 05 hr 55 min 56 sec)
Simulation finished CPU 13 instructions: 100000000 cycles: 25000000 cumulative IPC: 4 (Simulation time: 05 hr 55 min 56 sec)
Simulation finished CPU 12 instructions: 100000000 cycles: 25000000 cumulative IPC: 4 (Simulation time: 05 hr 55 min 56 sec)
*** Reached end of trace: (7, "traces/canneal_big2.champsimtrace")
*** Reached end of trace: (2, "traces/canneal_big2.champsimtrace")
*** Reached end of trace: (12, "traces/canneal_big2.champsimtrace")
*** Reached end of trace: (9, "traces/canneal_big4.champsimtrace")
*** Reached end of trace: (4, "traces/canneal_big4.champsimtrace")
*** Reached end of trace: (14, "traces/canneal_big4.champsimtrace")
*** Reached end of trace: (8, "traces/canneal_big3.champsimtrace")
*** Reached end of trace: (13, "traces/canneal_big3.champsimtrace")
*** Reached end of trace: (3, "traces/canneal_big3.champsimtrace")
*** Reached end of trace: (10, "traces/canneal_big0.champsimtrace")
Heartbeat CPU 10 instructions: 110000028 cycles: 56478077 heartbeat IPC: 1.196 cumulative IPC: 1.188 (Simulation time: 05 hr 59 min 46 sec)
*** Reached end of trace: (0, "traces/canneal_big0.champsimtrace")
Heartbeat CPU 0 instructions: 110000030 cycles: 56816228 heartbeat IPC: 1.183 cumulative IPC: 1.172 (Simulation time: 06 hr 01 min 42 sec)
*** Reached end of trace: (15, "traces/canneal_big0.champsimtrace")
Heartbeat CPU 15 instructions: 110000028 cycles: 56870753 heartbeat IPC: 1.176 cumulative IPC: 1.17 (Simulation time: 06 hr 02 min 02 sec)
*** Reached end of trace: (5, "traces/canneal_big0.champsimtrace")
Heartbeat CPU 5 instructions: 110000028 cycles: 57317722 heartbeat IPC: 1.175 cumulative IPC: 1.156 (Simulation time: 06 hr 04 min 36 sec)
*** Reached end of trace: (7, "traces/canneal_big2.champsimtrace")
*** Reached end of trace: (2, "traces/canneal_big2.champsimtrace")
*** Reached end of trace: (12, "traces/canneal_big2.champsimtrace")
*** Reached end of trace: (9, "traces/canneal_big4.champsimtrace")
*** Reached end of trace: (14, "traces/canneal_big4.champsimtrace")
*** Reached end of trace: (4, "traces/canneal_big4.champsimtrace")
*** Reached end of trace: (8, "traces/canneal_big3.champsimtrace")
*** Reached end of trace: (13, "traces/canneal_big3.champsimtrace")
*** Reached end of trace: (3, "traces/canneal_big3.champsimtrace")
Heartbeat CPU 7 instructions: 230000001 cycles: 57505205 heartbeat IPC: 4 cumulative IPC: 4 (Simulation time: 06 hr 05 min 41 sec)
Heartbeat CPU 2 instructions: 230000001 cycles: 57505211 heartbeat IPC: 4 cumulative IPC: 4 (Simulation time: 06 hr 05 min 41 sec)
Heartbeat CPU 12 instructions: 230000001 cycles: 57505220 heartbeat IPC: 4 cumulative IPC: 4 (Simulation time: 06 hr 05 min 41 sec)
Heartbeat CPU 9 instructions: 230000000 cycles: 57505239 heartbeat IPC: 4 cumulative IPC: 4 (Simulation time: 06 hr 05 min 41 sec)
Heartbeat CPU 14 instructions: 230000001 cycles: 57505247 heartbeat IPC: 4 cumulative IPC: 4 (Simulation time: 06 hr 05 min 41 sec)
Heartbeat CPU 4 instructions: 230000003 cycles: 57505248 heartbeat IPC: 4 cumulative IPC: 4 (Simulation time: 06 hr 05 min 41 sec)
Heartbeat CPU 8 instructions: 230000002 cycles: 57505259 heartbeat IPC: 4 cumulative IPC: 4 (Simulation time: 06 hr 05 min 41 sec)
Heartbeat CPU 13 instructions: 230000001 cycles: 57505263 heartbeat IPC: 4 cumulative IPC: 4 (Simulation time: 06 hr 05 min 41 sec)
Heartbeat CPU 3 instructions: 230000001 cycles: 57505264 heartbeat IPC: 4 cumulative IPC: 4 (Simulation time: 06 hr 05 min 41 sec)
*** Reached end of trace: (7, "traces/canneal_big2.champsimtrace")
*** Reached end of trace: (2, "traces/canneal_big2.champsimtrace")
*** Reached end of trace: (12, "traces/canneal_big2.champsimtrace")
*** Reached end of trace: (9, "traces/canneal_big4.champsimtrace")
*** Reached end of trace: (14, "traces/canneal_big4.champsimtrace")
*** Reached end of trace: (4, "traces/canneal_big4.champsimtrace")
*** Reached end of trace: (8, "traces/canneal_big3.champsimtrace")
*** Reached end of trace: (13, "traces/canneal_big3.champsimtrace")
*** Reached end of trace: (3, "traces/canneal_big3.champsimtrace")
*** Reached end of trace: (7, "traces/canneal_big2.champsimtrace")
*** Reached end of trace: (2, "traces/canneal_big2.champsimtrace")
*** Reached end of trace: (12, "traces/canneal_big2.champsimtrace")
*** Reached end of trace: (9, "traces/canneal_big4.champsimtrace")
*** Reached end of trace: (4, "traces/canneal_big4.champsimtrace")
*** Reached end of trace: (14, "traces/canneal_big4.champsimtrace")
*** Reached end of trace: (8, "traces/canneal_big3.champsimtrace")
*** Reached end of trace: (13, "traces/canneal_big3.champsimtrace")
*** Reached end of trace: (3, "traces/canneal_big3.champsimtrace")
Heartbeat CPU 7 instructions: 240000001 cycles: 60005205 heartbeat IPC: 4 cumulative IPC: 4 (Simulation time: 06 hr 22 min 01 sec)
Heartbeat CPU 2 instructions: 240000001 cycles: 60005211 heartbeat IPC: 4 cumulative IPC: 4 (Simulation time: 06 hr 22 min 01 sec)
Heartbeat CPU 12 instructions: 240000001 cycles: 60005220 heartbeat IPC: 4 cumulative IPC: 4 (Simulation time: 06 hr 22 min 01 sec)
Heartbeat CPU 9 instructions: 240000000 cycles: 60005239 heartbeat IPC: 4 cumulative IPC: 4 (Simulation time: 06 hr 22 min 01 sec)
Heartbeat CPU 14 instructions: 240000001 cycles: 60005247 heartbeat IPC: 4 cumulative IPC: 4 (Simulation time: 06 hr 22 min 01 sec)
Heartbeat CPU 4 instructions: 240000003 cycles: 60005248 heartbeat IPC: 4 cumulative IPC: 4 (Simulation time: 06 hr 22 min 01 sec)
Heartbeat CPU 8 instructions: 240000002 cycles: 60005259 heartbeat IPC: 4 cumulative IPC: 4 (Simulation time: 06 hr 22 min 01 sec)
Heartbeat CPU 13 instructions: 240000001 cycles: 60005263 heartbeat IPC: 4 cumulative IPC: 4 (Simulation time: 06 hr 22 min 01 sec)
Heartbeat CPU 3 instructions: 240000001 cycles: 60005264 heartbeat IPC: 4 cumulative IPC: 4 (Simulation time: 06 hr 22 min 01 sec)
*** Reached end of trace: (10, "traces/canneal_big0.champsimtrace")
*** Reached end of trace: (0, "traces/canneal_big0.champsimtrace")
*** Reached end of trace: (15, "traces/canneal_big0.champsimtrace")
*** Reached end of trace: (7, "traces/canneal_big2.champsimtrace")
*** Reached end of trace: (2, "traces/canneal_big2.champsimtrace")
*** Reached end of trace: (12, "traces/canneal_big2.champsimtrace")
*** Reached end of trace: (9, "traces/canneal_big4.champsimtrace")
*** Reached end of trace: (4, "traces/canneal_big4.champsimtrace")
*** Reached end of trace: (14, "traces/canneal_big4.champsimtrace")
*** Reached end of trace: (8, "traces/canneal_big3.champsimtrace")
[...]
cpu12->cpu12_ITLB TRANSLATION  ACCESS:          0 HIT:          0 MISS:          0 MSHR_MERGE:          0
cpu12->cpu12_ITLB PREFETCH REQUESTED:          0 ISSUED:          0 USEFUL:          0 USELESS:          0
cpu12->cpu12_ITLB AVERAGE MISS LATENCY: - cycles
cpu12_ITLB COHERENCE INVALIDATIONS:          0
cpu12_DTLB COHERENCE INVALIDATIONS:          0
cpu11->cpu11_STLB TOTAL        ACCESS:    2223708 HIT:    2027206 MISS:     196502 MSHR_MERGE:          0
cpu11->cpu11_STLB LOAD         ACCESS:    2223708 HIT:    2027206 MISS:     196502 MSHR_MERGE:          0
cpu11->cpu11_STLB RFO          ACCESS:          0 HIT:          0 MISS:          0 MSHR_MERGE:          0
cpu11->cpu11_STLB PREFETCH     ACCESS:          0 HIT:          0 MISS:          0 MSHR_MERGE:          0
cpu11->cpu11_STLB WRITE        ACCESS:          0 HIT:          0 MISS:          0 MSHR_MERGE:          0
cpu11->cpu11_STLB TRANSLATION  ACCESS:          0 HIT:          0 MISS:          0 MSHR_MERGE:          0
cpu11->cpu11_STLB PREFETCH REQUESTED:          0 ISSUED:          0 USEFUL:          0 USELESS:          0
cpu11->cpu11_STLB AVERAGE MISS LATENCY: 1467 cycles
cpu11_STLB COHERENCE INVALIDATIONS:          0
cpu11->cpu11_L2C TOTAL        ACCESS:    2356013 HIT:     404575 MISS:    1951438 MSHR_MERGE:          0
cpu11->cpu11_L2C LOAD         ACCESS:    1966628 HIT:     403409 MISS:    1563219 MSHR_MERGE:          0
cpu11->cpu11_L2C RFO          ACCESS:          0 HIT:          0 MISS:          0 MSHR_MERGE:          0
cpu11->cpu11_L2C PREFETCH     ACCESS:          0 HIT:          0 MISS:          0 MSHR_MERGE:          0
cpu11->cpu11_L2C WRITE        ACCESS:          0 HIT:          0 MISS:          0 MSHR_MERGE:          0
cpu11->cpu11_L2C TRANSLATION  ACCESS:     389385 HIT:       1166 MISS:     388219 MSHR_MERGE:          0
cpu11->cpu11_L2C PREFETCH REQUESTED:          0 ISSUED:          0 USEFUL:          0 USELESS:          0
cpu11->cpu11_L2C AVERAGE MISS LATENCY: 747.5 cycles
cpu11_L2C COHERENCE INVALIDATIONS:          0
cpu11->cpu11_L1I TOTAL        ACCESS:   34173493 HIT:   32007245 MISS:    2166248 MSHR_MERGE:     199620
cpu11->cpu11_L1I LOAD         ACCESS:   34173493 HIT:   32007245 MISS:    2166248 MSHR_MERGE:     199620
cpu11->cpu11_L1I RFO          ACCESS:          0 HIT:          0 MISS:          0 MSHR_MERGE:          0
cpu11->cpu11_L1I PREFETCH     ACCESS:          0 HIT:          0 MISS:          0 MSHR_MERGE:          0
cpu11->cpu11_L1I WRITE        ACCESS:          0 HIT:          0 MISS:          0 MSHR_MERGE:          0
cpu11->cpu11_L1I TRANSLATION  ACCESS:          0 HIT:          0 MISS:          0 MSHR_MERGE:          0
cpu11->cpu11_L1I PREFETCH REQUESTED:          0 ISSUED:          0 USEFUL:          0 USELESS:          0
cpu11->cpu11_L1I AVERAGE MISS LATENCY: 605.8 cycles
cpu11_L1I COHERENCE INVALIDATIONS:          0
cpu11->cpu11_L1D TOTAL        ACCESS:     393141 HIT:       3756 MISS:     389385 MSHR_MERGE:          0
cpu11->cpu11_L1D LOAD         ACCESS:          0 HIT:          0 MISS:          0 MSHR_MERGE:          0
cpu11->cpu11_L1D RFO          ACCESS:          0 HIT:          0 MISS:          0 MSHR_MERGE:          0
cpu11->cpu11_L1D PREFETCH     ACCESS:          0 HIT:          0 MISS:          0 MSHR_MERGE:          0
cpu11->cpu11_L1D WRITE        ACCESS:          0 HIT:          0 MISS:          0 MSHR_MERGE:          0
cpu11->cpu11_L1D TRANSLATION  ACCESS:     393141 HIT:       3756 MISS:     389385 MSHR_MERGE:          0
cpu11->cpu11_L1D PREFETCH REQUESTED:          0 ISSUED:          0 USEFUL:          0 USELESS:          0
cpu11->cpu11_L1D AVERAGE MISS LATENCY: 734.3 cycles
cpu11_L1D COHERENCE INVALIDATIONS:          0
cpu11->cpu11_ITLB TOTAL        ACCESS:   33637830 HIT:   31363129 MISS:    2274701 MSHR_MERGE:      50993
cpu11->cpu11_ITLB LOAD         ACCESS:   33637830 HIT:   31363129 MISS:    2274701 MSHR_MERGE:      50993
cpu11->cpu11_ITLB RFO          ACCESS:          0 HIT:          0 MISS:          0 MSHR_MERGE:          0
cpu11->cpu11_ITLB PREFETCH     ACCESS:          0 HIT:          0 MISS:          0 MSHR_MERGE:          0
cpu11->cpu11_ITLB WRITE        ACCESS:          0 HIT:          0 MISS:          0 MSHR_MERGE:          0
cpu11->cpu11_ITLB TRANSLATION  ACCESS:          0 HIT:          0 MISS:          0 MSHR_MERGE:          0
cpu11->cpu11_ITLB PREFETCH REQUESTED:          0 ISSUED:          0 USEFUL:          0 USELESS:          0
cpu11->cpu11_ITLB AVERAGE MISS LATENCY: 133.7 cycles
cpu11_ITLB COHERENCE INVALIDATIONS:          0
cpu11_DTLB COHERENCE INVALIDATIONS:          0
cpu10->cpu10_STLB TOTAL        ACCESS:     409295 HIT:     409295 MISS:          0 MSHR_MERGE:          0
cpu10->cpu10_STLB LOAD         ACCESS:     409295 HIT:     409295 MISS:          0 MSHR_MERGE:          0
cpu10->cpu10_STLB RFO          ACCESS:          0 HIT:          0 MISS:          0 MSHR_MERGE:          0
cpu10->cpu10_STLB PREFETCH     ACCESS:          0 HIT:          0 MISS:          0 MSHR_MERGE:          0
cpu10->cpu10_STLB WRITE        ACCESS:          0 HIT:          0 MISS:          0 MSHR_MERGE:          0
cpu10->cpu10_STLB TRANSLATION  ACCESS:          0 HIT:          0 MISS:          0 MSHR_MERGE:          0
cpu10->cpu10_STLB PREFETCH REQUESTED:          0 ISSUED:          0 USEFUL:          0 USELESS:          0
cpu10->cpu10_STLB AVERAGE MISS LATENCY: - cycles
cpu10_STLB COHERENCE INVALIDATIONS:          0
cpu10->cpu10_L2C TOTAL        ACCESS:   13076999 HIT:    6340563 MISS:    6736436 MSHR_MERGE:          0
cpu10->cpu10_L2C LOAD         ACCESS:    2063761 HIT:     694353 MISS:    1369408 MSHR_MERGE:          0
cpu10->cpu10_L2C RFO          ACCESS:    5465566 HIT:      98756 MISS:    5366810 MSHR_MERGE:          0
cpu10->cpu10_L2C PREFETCH     ACCESS:          0 HIT:          0 MISS:          0 MSHR_MERGE:          0
cpu10->cpu10_L2C WRITE        ACCESS:    5547672 HIT:    5547454 MISS:        218 MSHR_MERGE:          0
cpu10->cpu10_L2C TRANSLATION  ACCESS:          0 HIT:          0 MISS:          0 MSHR_MERGE:          0
cpu10->cpu10_L2C PREFETCH REQUESTED:          0 ISSUED:          0 USEFUL:          0 USELESS:          0
cpu10->cpu10_L2C AVERAGE MISS LATENCY: 582.8 cycles
cpu10_L2C COHERENCE INVALIDATIONS:          0
cpu10->cpu10_L1I TOTAL        ACCESS:  183392652 HIT:  182993598 MISS:     399054 MSHR_MERGE:     103215
cpu10->cpu10_L1I LOAD         ACCESS:  183392652 HIT:  182993598 MISS:     399054 MSHR_MERGE:     103215
cpu10->cpu10_L1I RFO          ACCESS:          0 HIT:          0 MISS:          0 MSHR_MERGE:          0
cpu10->cpu10_L1I PREFETCH     ACCESS:          0 HIT:          0 MISS:          0 MSHR_MERGE:          0
cpu10->cpu10_L1I WRITE        ACCESS:          0 HIT:          0 MISS:          0 MSHR_MERGE:          0
cpu10->cpu10_L1I TRANSLATION  ACCESS:          0 HIT:          0 MISS:          0 MSHR_MERGE:          0
cpu10->cpu10_L1I PREFETCH REQUESTED:          0 ISSUED:          0 USEFUL:          0 USELESS:          0
cpu10->cpu10_L1I AVERAGE MISS LATENCY: 539.7 cycles
cpu10_L1I COHERENCE INVALIDATIONS:          0
cpu10->cpu10_L1D TOTAL        ACCESS:  211401985 HIT:  174586553 MISS:   36815432 MSHR_MERGE:   29577277
cpu10->cpu10_L1D LOAD         ACCESS:   22593717 HIT:   18951653 MISS:    3642064 MSHR_MERGE:    1874142
cpu10->cpu10_L1D RFO          ACCESS:          0 HIT:          0 MISS:          0 MSHR_MERGE:          0
cpu10->cpu10_L1D PREFETCH     ACCESS:          0 HIT:          0 MISS:          0 MSHR_MERGE:          0
cpu10->cpu10_L1D WRITE        ACCESS:  188808268 HIT:  155634900 MISS:   33173368 MSHR_MERGE:   27703135
cpu10->cpu10_L1D TRANSLATION  ACCESS:          0 HIT:          0 MISS:          0 MSHR_MERGE:          0
cpu10->cpu10_L1D PREFETCH REQUESTED:          0 ISSUED:          0 USEFUL:          0 USELESS:          0
cpu10->cpu10_L1D AVERAGE MISS LATENCY: 528.6 cycles
cpu10_L1D COHERENCE INVALIDATIONS:          0
cpu10->cpu10_ITLB TOTAL        ACCESS:  152679933 HIT:  152618528 MISS:      61405 MSHR_MERGE:      24126
cpu10->cpu10_ITLB LOAD         ACCESS:  152679933 HIT:  152618528 MISS:      61405 MSHR_MERGE:      24126
cpu10->cpu10_ITLB RFO          ACCESS:          0 HIT:          0 MISS:          0 MSHR_MERGE:          0
cpu10->cpu10_ITLB PREFETCH     ACCESS:          0 HIT:          0 MISS:          0 MSHR_MERGE:          0
cpu10->cpu10_ITLB WRITE        ACCESS:          0 HIT:          0 MISS:          0 MSHR_MERGE:          0
cpu10->cpu10_ITLB TRANSLATION  ACCESS:          0 HIT:          0 MISS:          0 MSHR_MERGE:          0
cpu10->cpu10_ITLB PREFETCH REQUESTED:          0 ISSUED:          0 USEFUL:          0 USELESS:          0
cpu10->cpu10_ITLB AVERAGE MISS LATENCY: 4.004 cycles
cpu10_ITLB COHERENCE INVALIDATIONS:          0
cpu10->cpu10_DTLB TOTAL        ACCESS:  176452983 HIT:  175968834 MISS:     484149 MSHR_MERGE:     112133
cpu10->cpu10_DTLB LOAD         ACCESS:  176452983 HIT:  175968834 MISS:     484149 MSHR_MERGE:     112133
cpu10->cpu10_DTLB RFO          ACCESS:          0 HIT:          0 MISS:          0 MSHR_MERGE:          0
cpu10->cpu10_DTLB PREFETCH     ACCESS:          0 HIT:          0 MISS:          0 MSHR_MERGE:          0
cpu10->cpu10_DTLB WRITE        ACCESS:          0 HIT:          0 MISS:          0 MSHR_MERGE:          0
cpu10->cpu10_DTLB TRANSLATION  ACCESS:          0 HIT:          0 MISS:          0 MSHR_MERGE:          0
cpu10->cpu10_DTLB PREFETCH REQUESTED:          0 ISSUED:          0 USEFUL:          0 USELESS:          0
cpu10->cpu10_DTLB AVERAGE MISS LATENCY: 4 cycles
cpu10_DTLB COHERENCE INVALIDATIONS:          0
cpu0->cpu0_STLB TOTAL        ACCESS:     409024 HIT:     409024 MISS:          0 MSHR_MERGE:          0
cpu0->cpu0_STLB LOAD         ACCESS:     409024 HIT:     409024 MISS:          0 MSHR_MERGE:          0
cpu0->cpu0_STLB RFO          ACCESS:          0 HIT:          0 MISS:          0 MSHR_MERGE:          0
cpu0->cpu0_STLB PREFETCH     ACCESS:          0 HIT:          0 MISS:          0 MSHR_MERGE:          0
cpu0->cpu0_STLB WRITE        ACCESS:          0 HIT:          0 MISS:          0 MSHR_MERGE:          0
cpu0->cpu0_STLB TRANSLATION  ACCESS:          0 HIT:          0 MISS:          0 MSHR_MERGE:          0
cpu0->cpu0_STLB PREFETCH REQUESTED:          0 ISSUED:          0 USEFUL:          0 USELESS:          0
cpu0->cpu0_STLB AVERAGE MISS LATENCY: - cycles
cpu0_STLB COHERENCE INVALIDATIONS:          0
cpu0->cpu0_L2C TOTAL        ACCESS:   13075800 HIT:    6341283 MISS:    6734517 MSHR_MERGE:          0
cpu0->cpu0_L2C LOAD         ACCESS:    2061997 HIT:     694390 MISS:    1367607 MSHR_MERGE:          0
cpu0->cpu0_L2C RFO          ACCESS:    5466659 HIT:      99967 MISS:    5366692 MSHR_MERGE:          0
cpu0->cpu0_L2C PREFETCH     ACCESS:          0 HIT:          0 MISS:          0 MSHR_MERGE:          0
cpu0->cpu0_L2C WRITE        ACCESS:    5547144 HIT:    5546926 MISS:        218 MSHR_MERGE:          0
cpu0->cpu0_L2C TRANSLATION  ACCESS:          0 HIT:          0 MISS:          0 MSHR_MERGE:          0
cpu0->cpu0_L2C PREFETCH REQUESTED:          0 ISSUED:          0 USEFUL:          0 USELESS:          0
cpu0->cpu0_L2C AVERAGE MISS LATENCY: 650.8 cycles
cpu0_L2C COHERENCE INVALIDATIONS:          0
cpu0->cpu0_L1I TOTAL        ACCESS:  183350856 HIT:  182949205 MISS:     401651 MSHR_MERGE:     105812
cpu0->cpu0_L1I LOAD         ACCESS:  183350856 HIT:  182949205 MISS:     401651 MSHR_MERGE:     105812
cpu0->cpu0_L1I RFO          ACCESS:          0 HIT:          0 MISS:          0 MSHR_MERGE:          0
cpu0->cpu0_L1I PREFETCH     ACCESS:          0 HIT:          0 MISS:          0 MSHR_MERGE:          0
cpu0->cpu0_L1I WRITE        ACCESS:          0 HIT:          0 MISS:          0 MSHR_MERGE:          0
cpu0->cpu0_L1I TRANSLATION  ACCESS:          0 HIT:          0 MISS:          0 MSHR_MERGE:          0
cpu0->cpu0_L1I PREFETCH REQUESTED:          0 ISSUED:          0 USEFUL:          0 USELESS:          0
cpu0->cpu0_L1I AVERAGE MISS LATENCY: 615.1 cycles
cpu0_L1I COHERENCE INVALIDATIONS:          0
cpu0->cpu0_L1D TOTAL        ACCESS:  209230768 HIT:  171001066 MISS:   38229702 MSHR_MERGE:   30993605
cpu0->cpu0_L1D LOAD         ACCESS:   22527397 HIT:   18917576 MISS:    3609821 MSHR_MERGE:    1843663
cpu0->cpu0_L1D RFO          ACCESS:          0 HIT:          0 MISS:          0 MSHR_MERGE:          0
cpu0->cpu0_L1D PREFETCH     ACCESS:          0 HIT:          0 MISS:          0 MSHR_MERGE:          0
cpu0->cpu0_L1D WRITE        ACCESS:  186703371 HIT:  152083490 MISS:   34619881 MSHR_MERGE:   29149942
cpu0->cpu0_L1D TRANSLATION  ACCESS:          0 HIT:          0 MISS:          0 MSHR_MERGE:          0
cpu0->cpu0_L1D PREFETCH REQUESTED:          0 ISSUED:          0 USEFUL:          0 USELESS:          0
cpu0->cpu0_L1D AVERAGE MISS LATENCY: 588.8 cycles
cpu0_L1D COHERENCE INVALIDATIONS:          0
cpu0->cpu0_ITLB TOTAL        ACCESS:  152643208 HIT:  152581517 MISS:      61691 MSHR_MERGE:      24412
cpu0->cpu0_ITLB LOAD         ACCESS:  152643208 HIT:  152581517 MISS:      61691 MSHR_MERGE:      24412
cpu0->cpu0_ITLB RFO          ACCESS:          0 HIT:          0 MISS:          0 MSHR_MERGE:          0
cpu0->cpu0_ITLB PREFETCH     ACCESS:          0 HIT:          0 MISS:          0 MSHR_MERGE:          0
cpu0->cpu0_ITLB WRITE        ACCESS:          0 HIT:          0 MISS:          0 MSHR_MERGE:          0
cpu0->cpu0_ITLB TRANSLATION  ACCESS:          0 HIT:          0 MISS:          0 MSHR_MERGE:          0
cpu0->cpu0_ITLB PREFETCH REQUESTED:          0 ISSUED:          0 USEFUL:          0 USELESS:          0
cpu0->cpu0_ITLB AVERAGE MISS LATENCY: 4.006 cycles
cpu0_ITLB COHERENCE INVALIDATIONS:          0
cpu0->cpu0_DTLB TOTAL        ACCESS:  174719560 HIT:  174235165 MISS:     484395 MSHR_MERGE:     112650
cpu0->cpu0_DTLB LOAD         ACCESS:  174719560 HIT:  174235165 MISS:     484395 MSHR_MERGE:     112650
cpu0->cpu0_DTLB RFO          ACCESS:          0 HIT:          0 MISS:          0 MSHR_MERGE:          0
cpu0->cpu0_DTLB PREFETCH     ACCESS:          0 HIT:          0 MISS:          0 MSHR_MERGE:          0
cpu0->cpu0_DTLB WRITE        ACCESS:          0 HIT:          0 MISS:          0 MSHR_MERGE:          0
cpu0->cpu0_DTLB TRANSLATION  ACCESS:          0 HIT:          0 MISS:          0 MSHR_MERGE:          0
cpu0->cpu0_DTLB PREFETCH REQUESTED:          0 ISSUED:          0 USEFUL:          0 USELESS:          0
cpu0->cpu0_DTLB AVERAGE MISS LATENCY: 4 cycles
cpu0_DTLB COHERENCE INVALIDATIONS:          0
cpu0->LLC TOTAL        ACCESS:   12158849 HIT:    3334372 MISS:    8824477 MSHR_MERGE:          0
cpu0->LLC LOAD         ACCESS:    1367605 HIT:      37750 MISS:    1329855 MSHR_MERGE:          0
cpu0->LLC RFO          ACCESS:    5366692 HIT:    1629507 MISS:    3737185 MSHR_MERGE:          0
cpu0->LLC PREFETCH     ACCESS:          0 HIT:          0 MISS:          0 MSHR_MERGE:          0
cpu0->LLC WRITE        ACCESS:    5424552 HIT:    1667115 MISS:    3757437 MSHR_MERGE:          0
cpu0->LLC TRANSLATION  ACCESS:          0 HIT:          0 MISS:          0 MSHR_MERGE:          0
cpu0->LLC PREFETCH REQUESTED:          0 ISSUED:          0 USEFUL:          0 USELESS:          0
cpu0->LLC AVERAGE MISS LATENCY: 1546 cycles
cpu1->LLC TOTAL        ACCESS:    1951076 HIT:          0 MISS:    1951076 MSHR_MERGE:          0
cpu1->LLC LOAD         ACCESS:    1562001 HIT:          0 MISS:    1562001 MSHR_MERGE:          0
cpu1->LLC RFO          ACCESS:          0 HIT:          0 MISS:          0 MSHR_MERGE:          0
cpu1->LLC PREFETCH     ACCESS:          0 HIT:          0 MISS:          0 MSHR_MERGE:          0
cpu1->LLC WRITE        ACCESS:          0 HIT:          0 MISS:          0 MSHR_MERGE:          0
cpu1->LLC TRANSLATION  ACCESS:     389075 HIT:          0 MISS:     389075 MSHR_MERGE:          0
cpu1->LLC PREFETCH REQUESTED:          0 ISSUED:          0 USEFUL:          0 USELESS:          0
cpu1->LLC AVERAGE MISS LATENCY: 6993 cycles
cpu5->LLC TOTAL        ACCESS:   12150298 HIT:    3386637 MISS:    8763661 MSHR_MERGE:          0
cpu5->LLC LOAD         ACCESS:    1366474 HIT:      38416 MISS:    1328058 MSHR_MERGE:          0
cpu5->LLC RFO          ACCESS:    5363221 HIT:    1654896 MISS:    3708325 MSHR_MERGE:          0
cpu5->LLC PREFETCH     ACCESS:          0 HIT:          0 MISS:          0 MSHR_MERGE:          0
cpu5->LLC WRITE        ACCESS:    5420603 HIT:    1693325 MISS:    3727278 MSHR_MERGE:          0
cpu5->LLC TRANSLATION  ACCESS:          0 HIT:          0 MISS:          0 MSHR_MERGE:          0
cpu5->LLC PREFETCH REQUESTED:          0 ISSUED:          0 USEFUL:          0 USELESS:          0
cpu5->LLC AVERAGE MISS LATENCY: 1557 cycles
cpu6->LLC TOTAL        ACCESS:    1941983 HIT:          0 MISS:    1941983 MSHR_MERGE:          0
cpu6->LLC LOAD         ACCESS:    1554499 HIT:          0 MISS:    1554499 MSHR_MERGE:          0
cpu6->LLC RFO          ACCESS:          0 HIT:          0 MISS:          0 MSHR_MERGE:          0
cpu6->LLC PREFETCH     ACCESS:          0 HIT:          0 MISS:          0 MSHR_MERGE:          0
cpu6->LLC WRITE        ACCESS:          0 HIT:          0 MISS:          0 MSHR_MERGE:          0
cpu6->LLC TRANSLATION  ACCESS:     387484 HIT:          0 MISS:     387484 MSHR_MERGE:          0
cpu6->LLC PREFETCH REQUESTED:          0 ISSUED:          0 USEFUL:          0 USELESS:          0
cpu6->LLC AVERAGE MISS LATENCY: 7026 cycles
cpu10->LLC TOTAL        ACCESS:   12162285 HIT:    3388467 MISS:    8773818 MSHR_MERGE:          0
cpu10->LLC LOAD         ACCESS:    1369408 HIT:      41716 MISS:    1327692 MSHR_MERGE:          0
cpu10->LLC RFO          ACCESS:    5366810 HIT:    1652343 MISS:    3714467 MSHR_MERGE:          0
cpu10->LLC PREFETCH     ACCESS:          0 HIT:          0 MISS:          0 MSHR_MERGE:          0
cpu10->LLC WRITE        ACCESS:    5426067 HIT:    1694408 MISS:    3731659 MSHR_MERGE:          0
cpu10->LLC TRANSLATION  ACCESS:          0 HIT:          0 MISS:          0 MSHR_MERGE:          0
cpu10->LLC PREFETCH REQUESTED:          0 ISSUED:          0 USEFUL:          0 USELESS:          0
cpu10->LLC AVERAGE MISS LATENCY: 1555 cycles
cpu11->LLC TOTAL        ACCESS:    1951438 HIT:          0 MISS:    1951438 MSHR_MERGE:          0
cpu11->LLC LOAD         ACCESS:    1563219 HIT:          0 MISS:    1563219 MSHR_MERGE:          0
cpu11->LLC RFO          ACCESS:          0 HIT:          0 MISS:          0 MSHR_MERGE:          0
cpu11->LLC PREFETCH     ACCESS:          0 HIT:          0 MISS:          0 MSHR_MERGE:          0
cpu11->LLC WRITE        ACCESS:          0 HIT:          0 MISS:          0 MSHR_MERGE:          0
cpu11->LLC TRANSLATION  ACCESS:     388219 HIT:          0 MISS:     388219 MSHR_MERGE:          0
cpu11->LLC PREFETCH REQUESTED:          0 ISSUED:          0 USEFUL:          0 USELESS:          0
cpu11->LLC AVERAGE MISS LATENCY: 6992 cycles
cpu15->LLC TOTAL        ACCESS:   12151770 HIT:    3285313 MISS:    8866457 MSHR_MERGE:          0
cpu15->LLC LOAD         ACCESS:    1365141 HIT:      39701 MISS:    1325440 MSHR_MERGE:          0
cpu15->LLC RFO          ACCESS:    5364639 HIT:    1602931 MISS:    3761708 MSHR_MERGE:          0
cpu15->LLC PREFETCH     ACCESS:          0 HIT:          0 MISS:          0 MSHR_MERGE:          0
cpu15->LLC WRITE        ACCESS:    5421990 HIT:    1642681 MISS:    3779309 MSHR_MERGE:          0
cpu15->LLC TRANSLATION  ACCESS:          0 HIT:          0 MISS:          0 MSHR_MERGE:          0
cpu15->LLC PREFETCH REQUESTED:          0 ISSUED:          0 USEFUL:          0 USELESS:          0
cpu15->LLC AVERAGE MISS LATENCY: 1539 cycles
LLC COHERENCE INVALIDATIONS:          0

DRAM Statistics

Channel 0 RQ ROW_BUFFER_HIT:    1577042
  ROW_BUFFER_MISS:   24500169
  AVG DBUS CONGESTED CYCLE: 7.365
Channel 0 WQ ROW_BUFFER_HIT:    1615535
  ROW_BUFFER_MISS:   13380051
  FULL:      37787
Channel 0 REFRESHES ISSUED:      76809
