[VMEM] WARNING: physical memory size is smaller than virtual memory size.

*** ChampSim Multicore Out-of-Order Simulator ***
Warmup Instructions: 50000000
Simulation Instructions: 100000000
Number of CPUs: 16
Page size: 4096

Off-chip DRAM Size: 16 GiB Channels: 1 Width: 64-bit Data Rate: 3205 MT/s
*** Reached end of trace: (7, "traces/canneal_big2.champsimtrace")
*** Reached end of trace: (2, "traces/canneal_big2.champsimtrace")
*** Reached end of trace: (12, "traces/canneal_big2.champsimtrace")
*** Reached end of trace: (9, "traces/canneal_big4.champsimtrace")
*** Reached end of trace: (14, "traces/canneal_big4.champsimtrace")
*** Reached end of trace: (4, "traces/canneal_big4.champsimtrace")
*** Reached end of trace: (8, "traces/canneal_big3.champsimtrace")
*** Reached end of trace: (13, "traces/canneal_big3.champsimtrace")
*** Reached end of trace: (3, "traces/canneal_big3.champsimtrace")
*** Reached end of trace: (5, "traces/canneal_big0.champsimtrace")
*** Reached end of trace: (10, "traces/canneal_big0.champsimtrace")
*** Reached end of trace: (0, "traces/canneal_big0.champsimtrace")
*** Reached end of trace: (15, "traces/canneal_big0.champsimtrace")
*** Reached end of trace: (7, "traces/canneal_big2.champsimtrace")
*** Reached end of trace: (2, "traces/canneal_big2.champsimtrace")
*** Reached end of trace: (12, "traces/canneal_big2.champsimtrace")
*** Reached end of trace: (9, "traces/canneal_big4.champsimtrace")
*** Reached end of trace: (14, "traces/canneal_big4.champsimtrace")
*** Reached end of trace: (4, "traces/canneal_big4.champsimtrace")
*** Reached end of trace: (8, "traces/canneal_big3.champsimtrace")
*** Reached end of trace: (13, "traces/canneal_big3.champsimtrace")
*** Reached end of trace: (3, "traces/canneal_big3.champsimtrace")
Heartbeat CPU 7 instructions: 10000001 cycles: 2505205 heartbeat IPC: 3.992 cumulative IPC: 3.992 (Simulation time: 00 hr 21 min 58 sec)
Heartbeat CPU 2 instructions: 10000001 cycles: 2505211 heartbeat IPC: 3.992 cumulative IPC: 3.992 (Simulation time: 00 hr 21 min 58 sec)
Heartbeat CPU 12 instructions: 10000001 cycles: 2505220 heartbeat IPC: 3.992 cumulative IPC: 3.992 (Simulation time: 00 hr 21 min 58 sec)
Heartbeat CPU 9 instructions: 10000000 cycles: 2505239 heartbeat IPC: 3.992 cumulative IPC: 3.992 (Simulation time: 00 hr 21 min 58 sec)
Heartbeat CPU 14 instructions: 10000001 cycles: 2505247 heartbeat IPC: 3.992 cumulative IPC: 3.992 (Simulation time: 00 hr 21 min 58 sec)
Heartbeat CPU 4 instructions: 10000003 cycles: 2505248 heartbeat IPC: 3.992 cumulative IPC: 3.992 (Simulation time: 00 hr 21 min 58 sec)
Heartbeat CPU 8 instructions: 10000002 cycles: 2505259 heartbeat IPC: 3.992 cumulative IPC: 3.992 (Simulation time: 00 hr 21 min 58 sec)
Heartbeat CPU 13 instructions: 10000001 cycles: 2505263 heartbeat IPC: 3.992 cumulative IPC: 3.992 (Simulation time: 00 hr 21 min 58 sec)
Heartbeat CPU 3 instructions: 10000001 cycles: 2505264 heartbeat IPC: 3.992 cumulative IPC: 3.992 (Simulation time: 00 hr 21 min 58 sec)
*** Reached end of trace: (7, "traces/canneal_big2.champsimtrace")
*** Reached end of trace: (2, "traces/canneal_big2.champsimtrace")
*** Reached end of trace: (12, "traces/canneal_big2.champsimtrace")
*** Reached end of trace: (9, "traces/canneal_big4.champsimtrace")
*** Reached end of trace: (4, "traces/canneal_big4.champsimtrace")
*** Reached end of trace: (14, "traces/canneal_big4.champsimtrace")
*** Reached end of trace: (8, "traces/canneal_big3.champsimtrace")
*** Reached end of trace: (13, "traces/canneal_big3.champsimtrace")
*** Reached end of trace: (3, "traces/canneal_big3.champsimtrace")
*** Reached end of trace: (10, "traces/canneal_big0.champsimtrace")
Heartbeat CPU 10 instructions: 10000003 cycles: 4083168 heartbeat IPC: 2.449 cumulative IPC: 2.449 (Simulation time: 00 hr 35 min 25 sec)
*** Reached end of trace: (0, "traces/canneal_big0.champsimtrace")
*** Reached end of trace: (15, "traces/canneal_big0.champsimtrace")
Heartbeat CPU 0 instructions: 10000003 cycles: 4083323 heartbeat IPC: 2.449 cumulative IPC: 2.449 (Simulation time: 00 hr 35 min 25 sec)
Heartbeat CPU 15 instructions: 10000003 cycles: 4083359 heartbeat IPC: 2.449 cumulative IPC: 2.449 (Simulation time: 00 hr 35 min 25 sec)
*** Reached end of trace: (5, "traces/canneal_big0.champsimtrace")
Heartbeat CPU 5 instructions: 10000003 cycles: 4086853 heartbeat IPC: 2.447 cumulative IPC: 2.447 (Simulation time: 00 hr 35 min 27 sec)
*** Reached end of trace: (7, "traces/canneal_big2.champsimtrace")
*** Reached end of trace: (2, "traces/canneal_big2.champsimtrace")
*** Reached end of trace: (12, "traces/canneal_big2.champsimtrace")
*** Reached end of trace: (9, "traces/canneal_big4.champsimtrace")
*** Reached end of trace: (14, "traces/canneal_big4.champsimtrace")
*** Reached end of trace: (4, "traces/canneal_big4.champsimtrace")
*** Reached end of trace: (8, "traces/canneal_big3.champsimtrace")
*** Reached end of trace: (13, "traces/canneal_big3.champsimtrace")
*** Reached end of trace: (3, "traces/canneal_big3.champsimtrace")
Heartbeat CPU 7 instructions: 20000001 cycles: 5005205 heartbeat IPC: 4 cumulative IPC: 3.996 (Simulation time: 00 hr 43 min 08 sec)
Heartbeat CPU 2 instructions: 20000001 cycles: 5005211 heartbeat IPC: 4 cumulative IPC: 3.996 (Simulation time: 00 hr 43 min 08 sec)
Heartbeat CPU 12 instructions: 20000001 cycles: 5005220 heartbeat IPC: 4 cumulative IPC: 3.996 (Simulation time: 00 hr 43 min 08 sec)
Heartbeat CPU 9 instructions: 20000000 cycles: 5005239 heartbeat IPC: 4 cumulative IPC: 3.996 (Simulation time: 00 hr 43 min 08 sec)
Heartbeat CPU 14 instructions: 20000001 cycles: 5005247 heartbeat IPC: 4 cumulative IPC: 3.996 (Simulation time: 00 hr 43 min 08 sec)
Heartbeat CPU 4 instructions: 20000003 cycles: 5005248 heartbeat IPC: 4 cumulative IPC: 3.996 (Simulation time: 00 hr 43 min 08 sec)
Heartbeat CPU 8 instructions: 20000002 cycles: 5005259 heartbeat IPC: 4 cumulative IPC: 3.996 (Simulation time: 00 hr 43 min 08 sec)
Heartbeat CPU 13 instructions: 20000001 cycles: 5005263 heartbeat IPC: 4 cumulative IPC: 3.996 (Simulation time: 00 hr 43 min 08 sec)
Heartbeat CPU 3 instructions: 20000001 cycles: 5005264 heartbeat IPC: 4 cumulative IPC: 3.996 (Simulation time: 00 hr 43 min 08 sec)
*** Reached end of trace: (11, "traces/canneal_big1.champsimtrace")
*** Reached end of trace: (1, "traces/canneal_big1.champsimtrace")
*** Reached end of trace: (6, "traces/canneal_big1.champsimtrace")
*** Reached end of trace: (15, "traces/canneal_big0.champsimtrace")
*** Reached end of trace: (10, "traces/canneal_big0.champsimtrace")
*** Reached end of trace: (0, "traces/canneal_big0.champsimtrace")
*** Reached end of trace: (5, "traces/canneal_big0.champsimtrace")
*** Reached end of trace: (7, "traces/canneal_big2.champsimtrace")
*** Reached end of trace: (2, "traces/canneal_big2.champsimtrace")
*** Reached end of trace: (12, "traces/canneal_big2.champsimtrace")
*** Reached end of trace: (9, "traces/canneal_big4.champsimtrace")
*** Reached end of trace: (14, "traces/canneal_big4.champsimtrace")
*** Reached end of trace: (4, "traces/canneal_big4.champsimtrace")
*** Reached end of trace: (8, "traces/canneal_big3.champsimtrace")
*** Reached end of trace: (13, "traces/canneal_big3.champsimtrace")
*** Reached end of trace: (3, "traces/canneal_big3.champsimtrace")
*** Reached end of trace: (7, "traces/canneal_big2.champsimtrace")
*** Reached end of trace: (2, "traces/canneal_big2.champsimtrace")
*** Reached end of trace: (12, "traces/canneal_big2.champsimtrace")
*** Reached end of trace: (9, "traces/canneal_big4.champsimtrace")
*** Reached end of trace: (4, "traces/canneal_big4.champsimtrace")
*** Reached end of trace: (14, "traces/canneal_big4.champsimtrace")
*** Reached end of trace: (8, "traces/canneal_big3.champsimtrace")
*** Reached end of trace: (13, "traces/canneal_big3.champsimtrace")
*** Reached end of trace: (3, "traces/canneal_big3.champsimtrace")
Heartbeat CPU 7 instructions: 30000001 cycles: 7505205 heartbeat IPC: 4 cumulative IPC: 3.997 (Simulation time: 01 hr 00 min 11 sec)
Heartbeat CPU 2 instructions: 30000001 cycles: 7505211 heartbeat IPC: 4 cumulative IPC: 3.997 (Simulation time: 01 hr 00 min 11 sec)
Heartbeat CPU 12 instructions: 30000001 cycles: 7505220 heartbeat IPC: 4 cumulative IPC: 3.997 (Simulation time: 01 hr 00 min 11 sec)
Heartbeat CPU 9 instructions: 30000000 cycles: 7505239 heartbeat IPC: 4 cumulative IPC: 3.997 (Simulation time: 01 hr 00 min 11 sec)
Heartbeat CPU 14 instructions: 30000001 cycles: 7505247 heartbeat IPC: 4 cumulative IPC: 3.997 (Simulation time: 01 hr 00 min 11 sec)
Heartbeat CPU 4 instructions: 30000003 cycles: 7505248 heartbeat IPC: 4 cumulative IPC: 3.997 (Simulation time: 01 hr 00 min 11 sec)
Heartbeat CPU 8 instructions: 30000002 cycles: 7505259 heartbeat IPC: 4 cumulative IPC: 3.997 (Simulation time: 01 hr 00 min 11 sec)
Heartbeat CPU 13 instructions: 30000001 cycles: 7505263 heartbeat IPC: 4 cumulative IPC: 3.997 (Simulation time: 01 hr 00 min 11 sec)
Heartbeat CPU 3 instructions: 30000001 cycles: 7505264 heartbeat IPC: 4 cumulative IPC: 3.997 (Simulation time: 01 hr 00 min 11 sec)
*** Reached end of trace: (11, "traces/canneal_big1.champsimtrace")
Heartbeat CPU 11 instructions: 10000002 cycles: 7855825 heartbeat IPC: 1.273 cumulative IPC: 1.273 (Simulation time: 01 hr 02 min 28 sec)
*** Reached end of trace: (1, "traces/canneal_big1.champsimtrace")
Heartbeat CPU 1 instructions: 10000002 cycles: 7862086 heartbeat IPC: 1.272 cumulative IPC: 1.272 (Simulation time: 01 hr 02 min 30 sec)
*** Reached end of trace: (6, "traces/canneal_big1.champsimtrace")
Heartbeat CPU 6 instructions: 10000002 cycles: 7893549 heartbeat IPC: 1.267 cumulative IPC: 1.267 (Simulation time: 01 hr 02 min 43 sec)
*** Reached end of trace: (15, "traces/canneal_big0.champsimtrace")
Heartbeat CPU 15 instructions: 20000006 cycles: 7926478 heartbeat IPC: 2.602 cumulative IPC: 2.523 (Simulation time: 01 hr 02 min 56 sec)
*** Reached end of trace: (10, "traces/canneal_big0.champsimtrace")
*** Reached end of trace: (0, "traces/canneal_big0.champsimtrace")
Heartbeat CPU 10 instructions: 20000006 cycles: 7926722 heartbeat IPC: 2.602 cumulative IPC: 2.523 (Simulation time: 01 hr 02 min 56 sec)
Heartbeat CPU 0 instructions: 20000006 cycles: 7926842 heartbeat IPC: 2.602 cumulative IPC: 2.523 (Simulation time: 01 hr 02 min 56 sec)
*** Reached end of trace: (5, "traces/canneal_big0.champsimtrace")
Heartbeat CPU 5 instructions: 20000006 cycles: 7941290 heartbeat IPC: 2.594 cumulative IPC: 2.518 (Simulation time: 01 hr 03 min 02 sec)
*** Reached end of trace: (7, "traces/canneal_big2.champsimtrace")
*** Reached end of trace: (2, "traces/canneal_big2.champsimtrace")
*** Reached end of trace: (12, "traces/canneal_big2.champsimtrace")
*** Reached end of trace: (9, "traces/canneal_big4.champsimtrace")
*** Reached end of trace: (4, "traces/canneal_big4.champsimtrace")
*** Reached end of trace: (14, "traces/canneal_big4.champsimtrace")
*** Reached end of trace: (8, "traces/canneal_big3.champsimtrace")
*** Reached end of trace: (13, "traces/canneal_big3.champsimtrace")
*** Reached end of trace: (3, "traces/canneal_big3.champsimtrace")
*** Reached end of trace: (15, "traces/canneal_big0.champsimtrace")
*** Reached end of trace: (10, "traces/canneal_big0.champsimtrace")
*** Reached end of trace: (0, "traces/canneal_big0.champsimtrace")
*** Reached end of trace: (5, "traces/canneal_big0.champsimtrace")
*** Reached end of trace: (7, "traces/canneal_big2.champsimtrace")
*** Reached end of trace: (2, "traces/canneal_big2.champsimtrace")
*** Reached end of trace: (12, "traces/canneal_big2.champsimtrace")
*** Reached end of trace: (9, "traces/canneal_big4.champsimtrace")
*** Reached end of trace: (4, "traces/canneal_big4.champsimtrace")
*** Reached end of trace: (14, "traces/canneal_big4.champsimtrace")
*** Reached end of trace: (8, "traces/canneal_big3.champsimtrace")
*** Reached end of trace: (13, "traces/canneal_big3.champsimtrace")
*** Reached end of trace: (3, "traces/canneal_big3.champsimtrace")
Heartbeat CPU 7 instructions: 40000001 cycles: 10005205 heartbeat IPC: 4 cumulative IPC: 3.998 (Simulation time: 01 hr 16 min 21 sec)
Heartbeat CPU 2 instructions: 40000001 cycles: 10005211 heartbeat IPC: 4 cumulative IPC: 3.998 (Simulation time: 01 hr 16 min 21 sec)
Heartbeat CPU 12 instructions: 40000001 cycles: 10005220 heartbeat IPC: 4 cumulative IPC: 3.998 (Simulation time: 01 hr 16 min 21 sec)
Heartbeat CPU 9 instructions: 40000000 cycles: 10005239 heartbeat IPC: 4 cumulative IPC: 3.998 (Simulation time: 01 hr 16 min 21 sec)
Heartbeat CPU 14 instructions: 40000001 cycles: 10005247 heartbeat IPC: 4 cumulative IPC: 3.998 (Simulation time: 01 hr 16 min 21 sec)
Heartbeat CPU 4 instructions: 40000003 cycles: 10005248 heartbeat IPC: 4 cumulative IPC: 3.998 (Simulation time: 01 hr 16 min 21 sec)
Heartbeat CPU 8 instructions: 40000002 cycles: 10005259 heartbeat IPC: 4 cumulative IPC: 3.998 (Simulation time: 01 hr 16 min 21 sec)
Heartbeat CPU 13 instructions: 40000001 cycles: 10005263 heartbeat IPC: 4 cumulative IPC: 3.998 (Simulation time: 01 hr 16 min 21 sec)
Heartbeat CPU 3 instructions: 40000001 cycles: 10005264 heartbeat IPC: 4 cumulative IPC: 3.998 (Simulation time: 01 hr 16 min 21 sec)
*** Reached end of trace: (11, "traces/canneal_big1.champsimtrace")
*** Reached end of trace: (1, "traces/canneal_big1.champsimtrace")
*** Reached end of trace: (6, "traces/canneal_big1.champsimtrace")
*** Reached end of trace: (7, "traces/canneal_big2.champsimtrace")
*** Reached end of trace: (2, "traces/canneal_big2.champsimtrace")
*** Reached end of trace: (12, "traces/canneal_big2.champsimtrace")
*** Reached end of trace: (9, "traces/canneal_big4.champsimtrace")
*** Reached end of trace: (14, "traces/canneal_big4.champsimtrace")
*** Reached end of trace: (4, "traces/canneal_big4.champsimtrace")
*** Reached end of trace: (8, "traces/canneal_big3.champsimtrace")
*** Reached end of trace: (13, "traces/canneal_big3.champsimtrace")
*** Reached end of trace: (3, "traces/canneal_big3.champsimtrace")
*** Reached end of trace: (15, "traces/canneal_big0.champsimtrace")
Heartbeat CPU 15 instructions: 30000009 cycles: 11769519 heartbeat IPC: 2.602 cumulative IPC: 2.549 (Simulation time: 01 hr 27 min 33 sec)
*** Reached end of trace: (10, "traces/canneal_big0.champsimtrace")
*** Reached end of trace: (0, "traces/canneal_big0.champsimtrace")
Heartbeat CPU 10 instructions: 30000009 cycles: 11770193 heartbeat IPC: 2.602 cumulative IPC: 2.549 (Simulation time: 01 hr 27 min 33 sec)
Heartbeat CPU 0 instructions: 30000009 cycles: 11770283 heartbeat IPC: 2.602 cumulative IPC: 2.549 (Simulation time: 01 hr 27 min 33 sec)
*** Reached end of trace: (5, "traces/canneal_big0.champsimtrace")
Heartbeat CPU 5 instructions: 30000009 cycles: 11795651 heartbeat IPC: 2.594 cumulative IPC: 2.543 (Simulation time: 01 hr 27 min 46 sec)
*** Reached end of trace: (7, "traces/canneal_big2.champsimtrace")
*** Reached end of trace: (2, "traces/canneal_big2.champsimtrace")
*** Reached end of trace: (12, "traces/canneal_big2.champsimtrace")
*** Reached end of trace: (9, "traces/canneal_big4.champsimtrace")
*** Reached end of trace: (14, "traces/canneal_big4.champsimtrace")
*** Reached end of trace: (4, "traces/canneal_big4.champsimtrace")
*** Reached end of trace: (8, "traces/canneal_big3.champsimtrace")
*** Reached end of trace: (13, "traces/canneal_big3.champsimtrace")
*** Reached end of trace: (3, "traces/canneal_big3.champsimtrace")
Heartbeat CPU 7 instructions: 50000001 cycles: 12505205 heartbeat IPC: 4 cumulative IPC: 3.998 (Simulation time: 01 hr 32 min 32 sec)
Warmup finished CPU 7 instructions: 50000001 cycles: 12505205 cumulative IPC: 3.998 (Simulation time: 01 hr 32 min 32 sec)
Heartbeat CPU 2 instructions: 50000001 cycles: 12505211 heartbeat IPC: 4 cumulative IPC: 3.998 (Simulation time: 01 hr 32 min 32 sec)
Warmup finished CPU 2 instructions: 50000001 cycles: 12505211 cumulative IPC: 3.998 (Simulation time: 01 hr 32 min 32 sec)
Heartbeat CPU 12 instructions: 50000001 cycles: 12505220 heartbeat IPC: 4 cumulative IPC: 3.998 (Simulation time: 01 hr 32 min 32 sec)
Warmup finished CPU 12 instructions: 50000001 cycles: 12505220 cumulative IPC: 3.998 (Simulation time: 01 hr 32 min 32 sec)
Heartbeat CPU 9 instructions: 50000000 cycles: 12505239 heartbeat IPC: 4 cumulative IPC: 3.998 (Simulation time: 01 hr 32 min 32 sec)
Warmup finished CPU 9 instructions: 50000000 cycles: 12505239 cumulative IPC: 3.998 (Simulation time: 01 hr 32 min 32 sec)
Heartbeat CPU 14 instructions: 50000001 cycles: 12505247 heartbeat IPC: 4 cumulative IPC: 3.998 (Simulation time: 01 hr 32 min 32 sec)
Warmup finished CPU 14 instructions: 50000001 cycles: 12505247 cumulative IPC: 3.998 (Simulation time: 01 hr 32 min 32 sec)
Heartbeat CPU 4 instructions: 50000003 cycles: 12505248 heartbeat IPC: 4 cumulative IPC: 3.998 (Simulation time: 01 hr 32 min 32 sec)
Warmup finished CPU 4 instructions: 50000003 cycles: 12505248 cumulative IPC: 3.998 (Simulation time: 01 hr 32 min 32 sec)
Heartbeat CPU 8 instructions: 50000002 cycles: 12505259 heartbeat IPC: 4 cumulative IPC: 3.998 (Simulation time: 01 hr 32 min 32 sec)
Warmup finished CPU 8 instructions: 50000002 cycles: 12505259 cumulative IPC: 3.998 (Simulation time: 01 hr 32 min 32 sec)
Heartbeat CPU 13 instructions: 50000001 cycles: 12505263 heartbeat IPC: 4 cumulative IPC: 3.998 (Simulation time: 01 hr 32 min 32 sec)
Warmup finished CPU 13 instructions: 50000001 cycles: 12505263 cumulative IPC: 3.998 (Simulation time: 01 hr 32 min 32 sec)
Heartbeat CPU 3 instructions: 50000001 cycles: 12505264 heartbeat IPC: 4 cumulative IPC: 3.998 (Simulation time: 01 hr 32 min 32 sec)
Warmup finished CPU 3 instructions: 50000001 cycles: 12505264 cumulative IPC: 3.998 (Simulation time: 01 hr 32 min 32 sec)
*** Reached end of trace: (11, "traces/canneal_big1.champsimtrace")
Heartbeat CPU 11 instructions: 20000004 cycles: 13546869 heartbeat IPC: 1.757 cumulative IPC: 1.476 (Simulation time: 01 hr 39 min 38 sec)
*** Reached end of trace: (1, "traces/canneal_big1.champsimtrace")
Heartbeat CPU 1 instructions: 20000004 cycles: 13557172 heartbeat IPC: 1.756 cumulative IPC: 1.475 (Simulation time: 01 hr 39 min 42 sec)
*** Reached end of trace: (6, "traces/canneal_big1.champsimtrace")
Heartbeat CPU 6 instructions: 20000004 cycles: 13618451 heartbeat IPC: 1.747 cumulative IPC: 1.469 (Simulation time: 01 hr 40 min 07 sec)
*** Reached end of trace: (15, "traces/canneal_big0.champsimtrace")
*** Reached end of trace: (10, "traces/canneal_big0.champsimtrace")
*** Reached end of trace: (0, "traces/canneal_big0.champsimtrace")
*** Reached end of trace: (5, "traces/canneal_big0.champsimtrace")
*** Reached end of trace: (7, "traces/canneal_big2.champsimtrace")
*** Reached end of trace: (2, "traces/canneal_big2.champsimtrace")
*** Reached end of trace: (12, "traces/canneal_big2.champsimtrace")
*** Reached end of trace: (9, "traces/canneal_big4.champsimtrace")
*** Reached end of trace: (4, "traces/canneal_big4.champsimtrace")
*** Reached end of trace: (14, "traces/canneal_big4.champsimtrace")
*** Reached end of trace: (8, "traces/canneal_big3.champsimtrace")
*** Reached end of trace: (13, "traces/canneal_big3.champsimtrace")
*** Reached end of trace: (3, "traces/canneal_big3.champsimtrace")
*** Reached end of trace: (7, "traces/canneal_big2.champsimtrace")
*** Reached end of trace: (2, "traces/canneal_big2.champsimtrace")
*** Reached end of trace: (12, "traces/canneal_big2.champsimtrace")
*** Reached end of trace: (9, "traces/canneal_big4.champsimtrace")
*** Reached end of trace: (14, "traces/canneal_big4.champsimtrace")
*** Reached end of trace: (4, "traces/canneal_big4.champsimtrace")
*** Reached end of trace: (8, "traces/canneal_big3.champsimtrace")
*** Reached end of trace: (13, "traces/canneal_big3.champsimtrace")
*** Reached end of trace: (3, "traces/canneal_big3.champsimtrace")
Heartbeat CPU 7 instructions: 60000001 cycles: 15005205 heartbeat IPC: 4 cumulative IPC: 3.999 (Simulation time: 01 hr 49 min 05 sec)
Heartbeat CPU 2 instructions: 60000001 cycles: 15005211 heartbeat IPC: 4 cumulative IPC: 3.999 (Simulation time: 01 hr 49 min 05 sec)
Heartbeat CPU 12 instructions: 60000001 cycles: 15005220 heartbeat IPC: 4 cumulative IPC: 3.999 (Simulation time: 01 hr 49 min 05 sec)
Heartbeat CPU 9 instructions: 60000000 cycles: 15005239 heartbeat IPC: 4 cumulative IPC: 3.999 (Simulation time: 01 hr 49 min 05 sec)
Heartbeat CPU 14 instructions: 60000001 cycles: 15005247 heartbeat IPC: 4 cumulative IPC: 3.999 (Simulation time: 01 hr 49 min 05 sec)
Heartbeat CPU 4 instructions: 60000003 cycles: 15005248 heartbeat IPC: 4 cumulative IPC: 3.999 (Simulation time: 01 hr 49 min 05 sec)
Heartbeat CPU 8 instructions: 60000002 cycles: 15005259 heartbeat IPC: 4 cumulative IPC: 3.999 (Simulation time: 01 hr 49 min 05 sec)
Heartbeat CPU 13 instructions: 60000001 cycles: 15005263 heartbeat IPC: 4 cumulative IPC: 3.999 (Simulation time: 01 hr 49 min 05 sec)
Heartbeat CPU 3 instructions: 60000001 cycles: 15005264 heartbeat IPC: 4 cumulative IPC: 3.999 (Simulation time: 01 hr 49 min 05 sec)
*** Reached end of trace: (15, "traces/canneal_big0.champsimtrace")
Heartbeat CPU 15 instructions: 40000012 cycles: 15612560 heartbeat IPC: 2.602 cumulative IPC: 2.562 (Simulation time: 01 hr 53 min 14 sec)
*** Reached end of trace: (10, "traces/canneal_big0.champsimtrace")
*** Reached end of trace: (0, "traces/canneal_big0.champsimtrace")
Heartbeat CPU 10 instructions: 40000012 cycles: 15613664 heartbeat IPC: 2.602 cumulative IPC: 2.562 (Simulation time: 01 hr 53 min 15 sec)
Heartbeat CPU 0 instructions: 40000012 cycles: 15613724 heartbeat IPC: 2.602 cumulative IPC: 2.562 (Simulation time: 01 hr 53 min 15 sec)
*** Reached end of trace: (5, "traces/canneal_big0.champsimtrace")
Heartbeat CPU 5 instructions: 40000012 cycles: 15650012 heartbeat IPC: 2.594 cumulative IPC: 2.556 (Simulation time: 01 hr 53 min 30 sec)
*** Reached end of trace: (7, "traces/canneal_big2.champsimtrace")
*** Reached end of trace: (2, "traces/canneal_big2.champsimtrace")
*** Reached end of trace: (12, "traces/canneal_big2.champsimtrace")
*** Reached end of trace: (9, "traces/canneal_big4.champsimtrace")
*** Reached end of trace: (14, "traces/canneal_big4.champsimtrace")
*** Reached end of trace: (4, "traces/canneal_big4.champsimtrace")
*** Reached end of trace: (8, "traces/canneal_big3.champsimtrace")
*** Reached end of trace: (13, "traces/canneal_big3.champsimtrace")
*** Reached end of trace: (3, "traces/canneal_big3.champsimtrace")
*** Reached end of trace: (11, "traces/canneal_big1.champsimtrace")
*** Reached end of trace: (1, "traces/canneal_big1.champsimtrace")
*** Reached end of trace: (6, "traces/canneal_big1.champsimtrace")
*** Reached end of trace: (7, "traces/canneal_big2.champsimtrace")
*** Reached end of trace: (2, "traces/canneal_big2.champsimtrace")
*** Reached end of trace: (12, "traces/canneal_big2.champsimtrace")
*** Reached end of trace: (9, "traces/canneal_big4.champsimtrace")
*** Reached end of trace: (4, "traces/canneal_big4.champsimtrace")
*** Reached end of trace: (14, "traces/canneal_big4.champsimtrace")
*** Reached end of trace: (8, "traces/canneal_big3.champsimtrace")
*** Reached end of trace: (13, "traces/canneal_big3.champsimtrace")
*** Reached end of trace: (3, "traces/canneal_big3.champsimtrace")
Heartbeat CPU 7 instructions: 70000001 cycles: 17505205 heartbeat IPC: 4 cumulative IPC: 3.999 (Simulation time: 02 hr 05 min 29 sec)
Heartbeat CPU 2 instructions: 70000001 cycles: 17505211 heartbeat IPC: 4 cumulative IPC: 3.999 (Simulation time: 02 hr 05 min 29 sec)
Heartbeat CPU 12 instructions: 70000001 cycles: 17505220 heartbeat IPC: 4 cumulative IPC: 3.999 (Simulation time: 02 hr 05 min 29 sec)
Heartbeat CPU 9 instructions: 70000000 cycles: 17505239 heartbeat IPC: 4 cumulative IPC: 3.999 (Simulation time: 02 hr 05 min 29 sec)
Heartbeat CPU 14 instructions: 70000001 cycles: 17505247 heartbeat IPC: 4 cumulative IPC: 3.999 (Simulation time: 02 hr 05 min 29 sec)
Heartbeat CPU 4 instructions: 70000003 cycles: 17505248 heartbeat IPC: 4 cumulative IPC: 3.999 (Simulation time: 02 hr 05 min 29 sec)
Heartbeat CPU 8 instructions: 70000002 cycles: 17505259 heartbeat IPC: 4 cumulative IPC: 3.999 (Simulation time: 02 hr 05 min 29 sec)
Heartbeat CPU 13 instructions: 70000001 cycles: 17505263 heartbeat IPC: 4 cumulative IPC: 3.999 (Simulation time: 02 hr 05 min 29 sec)
Heartbeat CPU 3 instructions: 70000001 cycles: 17505264 heartbeat IPC: 4 cumulative IPC: 3.999 (Simulation time: 02 hr 05 min 29 sec)
*** Reached end of trace: (15, "traces/canneal_big0.champsimtrace")
*** Reached end of trace: (10, "traces/canneal_big0.champsimtrace")
*** Reached end of trace: (0, "traces/canneal_big0.champsimtrace")
*** Reached end of trace: (5, "traces/canneal_big0.champsimtrace")
*** Reached end of trace: (7, "traces/canneal_big2.champsimtrace")
*** Reached end of trace: (2, "traces/canneal_big2.champsimtrace")
*** Reached end of trace: (12, "traces/canneal_big2.champsimtrace")
*** Reached end of trace: (9, "traces/canneal_big4.champsimtrace")
*** Reached end of trace: (4, "traces/canneal_big4.champsimtrace")
*** Reached end of trace: (14, "traces/canneal_big4.champsimtrace")
*** Reached end of trace: (8, "traces/canneal_big3.champsimtrace")
*** Reached end of trace: (13, "traces/canneal_big3.champsimtrace")
*** Reached end of trace: (3, "traces/canneal_big3.champsimtrace")
*** Reached end of trace: (11, "traces/canneal_big1.champsimtrace")
Heartbeat CPU 11 instructions: 30000004 cycles: 19237910 heartbeat IPC: 1.757 cumulative IPC: 1.559 (Simulation time: 02 hr 16 min 52 sec)
*** Reached end of trace: (1, "traces/canneal_big1.champsimtrace")
Heartbeat CPU 1 instructions: 30000004 cycles: 19252243 heartbeat IPC: 1.756 cumulative IPC: 1.558 (Simulation time: 02 hr 16 min 57 sec)
*** Reached end of trace: (6, "traces/canneal_big1.champsimtrace")
Heartbeat CPU 6 instructions: 30000004 cycles: 19343362 heartbeat IPC: 1.747 cumulative IPC: 1.551 (Simulation time: 02 hr 17 min 28 sec)
*** Reached end of trace: (15, "traces/canneal_big0.champsimtrace")
Warmup finished CPU 15 instructions: 50000000 cycles: 19455598 cumulative IPC: 2.57 (Simulation time: 02 hr 18 min 11 sec)
Heartbeat CPU 15 instructions: 50000015 cycles: 19455601 heartbeat IPC: 2.602 cumulative IPC: 2.57 (Simulation time: 02 hr 18 min 11 sec)
*** Reached end of trace: (10, "traces/canneal_big0.champsimtrace")
*** Reached end of trace: (0, "traces/canneal_big0.champsimtrace")
Warmup finished CPU 10 instructions: 50000000 cycles: 19457137 cumulative IPC: 2.57 (Simulation time: 02 hr 18 min 12 sec)
Heartbeat CPU 10 instructions: 50000015 cycles: 19457140 heartbeat IPC: 2.602 cumulative IPC: 2.57 (Simulation time: 02 hr 18 min 12 sec)
Warmup finished CPU 0 instructions: 50000000 cycles: 19457162 cumulative IPC: 2.57 (Simulation time: 02 hr 18 min 12 sec)
Heartbeat CPU 0 instructions: 50000015 cycles: 19457165 heartbeat IPC: 2.602 cumulative IPC: 2.57 (Simulation time: 02 hr 18 min 12 sec)
*** Reached end of trace: (5, "traces/canneal_big0.champsimtrace")
Warmup finished CPU 5 instructions: 50000000 cycles: 19504370 cumulative IPC: 2.564 (Simulation time: 02 hr 18 min 31 sec)
Heartbeat CPU 5 instructions: 50000015 cycles: 19504373 heartbeat IPC: 2.594 cumulative IPC: 2.564 (Simulation time: 02 hr 18 min 31 sec)
*** Reached end of trace: (7, "traces/canneal_big2.champsimtrace")
*** Reached end of trace: (2, "traces/canneal_big2.champsimtrace")
*** Reached end of trace: (12, "traces/canneal_big2.champsimtrace")
*** Reached end of trace: (9, "traces/canneal_big4.champsimtrace")
*** Reached end of trace: (4, "traces/canneal_big4.champsimtrace")
*** Reached end of trace: (14, "traces/canneal_big4.champsimtrace")
*** Reached end of trace: (8, "traces/canneal_big3.champsimtrace")
*** Reached end of trace: (13, "traces/canneal_big3.champsimtrace")
*** Reached end of trace: (3, "traces/canneal_big3.champsimtrace")
Heartbeat CPU 7 instructions: 80000001 cycles: 20005205 heartbeat IPC: 4 cumulative IPC: 3.999 (Simulation time: 02 hr 22 min 02 sec)
Heartbeat CPU 2 instructions: 80000001 cycles: 20005211 heartbeat IPC: 4 cumulative IPC: 3.999 (Simulation time: 02 hr 22 min 02 sec)
Heartbeat CPU 12 instructions: 80000001 cycles: 20005220 heartbeat IPC: 4 cumulative IPC: 3.999 (Simulation time: 02 hr 22 min 02 sec)
Heartbeat CPU 9 instructions: 80000000 cycles: 20005239 heartbeat IPC: 4 cumulative IPC: 3.999 (Simulation time: 02 hr 22 min 02 sec)
Heartbeat CPU 14 instructions: 80000001 cycles: 20005247 heartbeat IPC: 4 cumulative IPC: 3.999 (Simulation time: 02 hr 22 min 02 sec)
Heartbeat CPU 4 instructions: 80000003 cycles: 20005248 heartbeat IPC: 4 cumulative IPC: 3.999 (Simulation time: 02 hr 22 min 02 sec)
Heartbeat CPU 8 instructions: 80000002 cycles: 20005259 heartbeat IPC: 4 cumulative IPC: 3.999 (Simulation time: 02 hr 22 min 02 sec)
Heartbeat CPU 13 instructions: 80000001 cycles: 20005263 heartbeat IPC: 4 cumulative IPC: 3.999 (Simulation time: 02 hr 22 min 02 sec)
Heartbeat CPU 3 instructions: 80000001 cycles: 20005264 heartbeat IPC: 4 cumulative IPC: 3.999 (Simulation time: 02 hr 22 min 02 sec)
*** Reached end of trace: (7, "traces/canneal_big2.champsimtrace")
*** Reached end of trace: (2, "traces/canneal_big2.champsimtrace")
*** Reached end of trace: (12, "traces/canneal_big2.champsimtrace")
*** Reached end of trace: (9, "traces/canneal_big4.champsimtrace")
*** Reached end of trace: (14, "traces/canneal_big4.champsimtrace")
*** Reached end of trace: (4, "traces/canneal_big4.champsimtrace")
*** Reached end of trace: (8, "traces/canneal_big3.champsimtrace")
*** Reached end of trace: (13, "traces/canneal_big3.champsimtrace")
*** Reached end of trace: (3, "traces/canneal_big3.champsimtrace")
*** Reached end of trace: (15, "traces/canneal_big0.champsimtrace")
*** Reached end of trace: (10, "traces/canneal_big0.champsimtrace")
*** Reached end of trace: (0, "traces/canneal_big0.champsimtrace")
*** Reached end of trace: (5, "traces/canneal_big0.champsimtrace")
*** Reached end of trace: (11, "traces/canneal_big1.champsimtrace")
*** Reached end of trace: (1, "traces/canneal_big1.champsimtrace")
*** Reached end of trace: (6, "traces/canneal_big1.champsimtrace")
*** Reached end of trace: (7, "traces/canneal_big2.champsimtrace")
*** Reached end of trace: (2, "traces/canneal_big2.champsimtrace")
*** Reached end of trace: (12, "traces/canneal_big2.champsimtrace")
*** Reached end of trace: (9, "traces/canneal_big4.champsimtrace")
*** Reached end of trace: (14, "traces/canneal_big4.champsimtrace")
*** Reached end of trace: (4, "traces/canneal_big4.champsimtrace")
*** Reached end of trace: (8, "traces/canneal_big3.champsimtrace")
*** Reached end of trace: (13, "traces/canneal_big3.champsimtrace")
*** Reached end of trace: (3, "traces/canneal_big3.champsimtrace")
Heartbeat CPU 7 instructions: 90000001 cycles: 22505205 heartbeat IPC: 4 cumulative IPC: 3.999 (Simulation time: 02 hr 38 min 39 sec)
Heartbeat CPU 2 instructions: 90000001 cycles: 22505211 heartbeat IPC: 4 cumulative IPC: 3.999 (Simulation time: 02 hr 38 min 39 sec)
Heartbeat CPU 12 instructions: 90000001 cycles: 22505220 heartbeat IPC: 4 cumulative IPC: 3.999 (Simulation time: 02 hr 38 min 39 sec)
Heartbeat CPU 9 instructions: 90000000 cycles: 22505239 heartbeat IPC: 4 cumulative IPC: 3.999 (Simulation time: 02 hr 38 min 39 sec)
Heartbeat CPU 14 instructions: 90000001 cycles: 22505247 heartbeat IPC: 4 cumulative IPC: 3.999 (Simulation time: 02 hr 38 min 39 sec)
Heartbeat CPU 4 instructions: 90000003 cycles: 22505248 heartbeat IPC: 4 cumulative IPC: 3.999 (Simulation time: 02 hr 38 min 39 sec)
Heartbeat CPU 8 instructions: 90000002 cycles: 22505259 heartbeat IPC: 4 cumulative IPC: 3.999 (Simulation time: 02 hr 38 min 39 sec)
Heartbeat CPU 13 instructions: 90000001 cycles: 22505263 heartbeat IPC: 4 cumulative IPC: 3.999 (Simulation time: 02 hr 38 min 39 sec)
Heartbeat CPU 3 instructions: 90000001 cycles: 22505264 heartbeat IPC: 4 cumulative IPC: 3.999 (Simulation time: 02 hr 38 min 39 sec)
*** Reached end of trace: (15, "traces/canneal_big0.champsimtrace")
Heartbeat CPU 15 instructions: 60000018 cycles: 23298642 heartbeat IPC: 2.602 cumulative IPC: 2.575 (Simulation time: 02 hr 43 min 43 sec)
*** Reached end of trace: (0, "traces/canneal_big0.champsimtrace")
*** Reached end of trace: (10, "traces/canneal_big0.champsimtrace")
Heartbeat CPU 0 instructions: 60000018 cycles: 23300606 heartbeat IPC: 2.602 cumulative IPC: 2.575 (Simulation time: 02 hr 43 min 43 sec)
Heartbeat CPU 10 instructions: 60000018 cycles: 23300611 heartbeat IPC: 2.602 cumulative IPC: 2.575 (Simulation time: 02 hr 43 min 43 sec)
*** Reached end of trace: (5, "traces/canneal_big0.champsimtrace")
Heartbeat CPU 5 instructions: 60000018 cycles: 23358734 heartbeat IPC: 2.594 cumulative IPC: 2.569 (Simulation time: 02 hr 44 min 08 sec)
*** Reached end of trace: (7, "traces/canneal_big2.champsimtrace")
*** Reached end of trace: (2, "traces/canneal_big2.champsimtrace")
*** Reached end of trace: (12, "traces/canneal_big2.champsimtrace")
*** Reached end of trace: (9, "traces/canneal_big4.champsimtrace")
*** Reached end of trace: (4, "traces/canneal_big4.champsimtrace")
*** Reached end of trace: (14, "traces/canneal_big4.champsimtrace")
*** Reached end of trace: (8, "traces/canneal_big3.champsimtrace")
*** Reached end of trace: (13, "traces/canneal_big3.champsimtrace")
*** Reached end of trace: (3, "traces/canneal_big3.champsimtrace")
*** Reached end of trace: (11, "traces/canneal_big1.champsimtrace")
Heartbeat CPU 11 instructions: 40000006 cycles: 24928962 heartbeat IPC: 1.757 cumulative IPC: 1.605 (Simulation time: 02 hr 54 min 31 sec)
*** Reached end of trace: (1, "traces/canneal_big1.champsimtrace")
Heartbeat CPU 1 instructions: 40000006 cycles: 24947370 heartbeat IPC: 1.756 cumulative IPC: 1.603 (Simulation time: 02 hr 54 min 39 sec)
*** Reached end of trace: (7, "traces/canneal_big2.champsimtrace")
*** Reached end of trace: (2, "traces/canneal_big2.champsimtrace")
*** Reached end of trace: (12, "traces/canneal_big2.champsimtrace")
*** Reached end of trace: (9, "traces/canneal_big4.champsimtrace")
*** Reached end of trace: (14, "traces/canneal_big4.champsimtrace")
*** Reached end of trace: (4, "traces/canneal_big4.champsimtrace")
*** Reached end of trace: (8, "traces/canneal_big3.champsimtrace")
*** Reached end of trace: (13, "traces/canneal_big3.champsimtrace")
*** Reached end of trace: (3, "traces/canneal_big3.champsimtrace")
Heartbeat CPU 7 instructions: 100000001 cycles: 25005205 heartbeat IPC: 4 cumulative IPC: 3.999 (Simulation time: 02 hr 55 min 03 sec)
Heartbeat CPU 2 instructions: 100000001 cycles: 25005211 heartbeat IPC: 4 cumulative IPC: 3.999 (Simulation time: 02 hr 55 min 03 sec)
Heartbeat CPU 12 instructions: 100000001 cycles: 25005220 heartbeat IPC: 4 cumulative IPC: 3.999 (Simulation time: 02 hr 55 min 03 sec)
Heartbeat CPU 9 instructions: 100000000 cycles: 25005239 heartbeat IPC: 4 cumulative IPC: 3.999 (Simulation time: 02 hr 55 min 03 sec)
Heartbeat CPU 14 instructions: 100000001 cycles: 25005247 heartbeat IPC: 4 cumulative IPC: 3.999 (Simulation time: 02 hr 55 min 03 sec)
Heartbeat CPU 4 instructions: 100000003 cycles: 25005248 heartbeat IPC: 4 cumulative IPC: 3.999 (Simulation time: 02 hr 55 min 03 sec)
Heartbeat CPU 8 instructions: 100000002 cycles: 25005259 heartbeat IPC: 4 cumulative IPC: 3.999 (Simulation time: 02 hr 55 min 03 sec)
Heartbeat CPU 13 instructions: 100000001 cycles: 25005263 heartbeat IPC: 4 cumulative IPC: 3.999 (Simulation time: 02 hr 55 min 03 sec)
Heartbeat CPU 3 instructions: 100000001 cycles: 25005264 heartbeat IPC: 4 cumulative IPC: 3.999 (Simulation time: 02 hr 55 min 03 sec)
*** Reached end of trace: (6, "traces/canneal_big1.champsimtrace")
Heartbeat CPU 6 instructions: 40000006 cycles: 25068271 heartbeat IPC: 1.747 cumulative IPC: 1.596 (Simulation time: 02 hr 55 min 29 sec)
*** Reached end of trace: (15, "traces/canneal_big0.champsimtrace")
*** Reached end of trace: (0, "traces/canneal_big0.champsimtrace")
*** Reached end of trace: (10, "traces/canneal_big0.champsimtrace")
*** Reached end of trace: (5, "traces/canneal_big0.champsimtrace")
*** Reached end of trace: (7, "traces/canneal_big2.champsimtrace")
*** Reached end of trace: (2, "traces/canneal_big2.champsimtrace")
*** Reached end of trace: (12, "traces/canneal_big2.champsimtrace")
*** Reached end of trace: (9, "traces/canneal_big4.champsimtrace")
*** Reached end of trace: (14, "traces/canneal_big4.champsimtrace")
*** Reached end of trace: (4, "traces/canneal_big4.champsimtrace")
*** Reached end of trace: (8, "traces/canneal_big3.champsimtrace")
*** Reached end of trace: (13, "traces/canneal_big3.champsimtrace")
*** Reached end of trace: (3, "traces/canneal_big3.champsimtrace")
*** Reached end of trace: (15, "traces/canneal_big0.champsimtrace")
Heartbeat CPU 15 instructions: 70000021 cycles: 27141683 heartbeat IPC: 2.602 cumulative IPC: 2.579 (Simulation time: 03 hr 09 min 09 sec)
*** Reached end of trace: (0, "traces/canneal_big0.champsimtrace")
*** Reached end of trace: (10, "traces/canneal_big0.champsimtrace")
Heartbeat CPU 0 instructions: 70000021 cycles: 27144047 heartbeat IPC: 2.602 cumulative IPC: 2.579 (Simulation time: 03 hr 09 min 10 sec)
Heartbeat CPU 10 instructions: 70000021 cycles: 27144082 heartbeat IPC: 2.602 cumulative IPC: 2.579 (Simulation time: 03 hr 09 min 10 sec)
*** Reached end of trace: (5, "traces/canneal_big0.champsimtrace")
Heartbeat CPU 5 instructions: 70000021 cycles: 27213095 heartbeat IPC: 2.594 cumulative IPC: 2.572 (Simulation time: 03 hr 09 min 39 sec)
*** Reached end of trace: (7, "traces/canneal_big2.champsimtrace")
*** Reached end of trace: (2, "traces/canneal_big2.champsimtrace")
*** Reached end of trace: (12, "traces/canneal_big2.champsimtrace")
*** Reached end of trace: (9, "traces/canneal_big4.champsimtrace")
*** Reached end of trace: (4, "traces/canneal_big4.champsimtrace")
*** Reached end of trace: (14, "traces/canneal_big4.champsimtrace")
*** Reached end of trace: (8, "traces/canneal_big3.champsimtrace")
*** Reached end of trace: (13, "traces/canneal_big3.champsimtrace")
*** Reached end of trace: (3, "traces/canneal_big3.champsimtrace")
Heartbeat CPU 7 instructions: 110000001 cycles: 27505205 heartbeat IPC: 4 cumulative IPC: 3.999 (Simulation time: 03 hr 11 min 43 sec)
Heartbeat CPU 2 instructions: 110000001 cycles: 27505211 heartbeat IPC: 4 cumulative IPC: 3.999 (Simulation time: 03 hr 11 min 43 sec)
Heartbeat CPU 12 instructions: 110000001 cycles: 27505220 heartbeat IPC: 4 cumulative IPC: 3.999 (Simulation time: 03 hr 11 min 43 sec)
Heartbeat CPU 9 instructions: 110000000 cycles: 27505239 heartbeat IPC: 4 cumulative IPC: 3.999 (Simulation time: 03 hr 11 min 43 sec)
Heartbeat CPU 14 instructions: 110000001 cycles: 27505247 heartbeat IPC: 4 cumulative IPC: 3.999 (Simulation time: 03 hr 11 min 43 sec)
Heartbeat CPU 4 instructions: 110000003 cycles: 27505248 heartbeat IPC: 4 cumulative IPC: 3.999 (Simulation time: 03 hr 11 min 43 sec)
Heartbeat CPU 8 instructions: 110000002 cycles: 27505259 heartbeat IPC: 4 cumulative IPC: 3.999 (Simulation time: 03 hr 11 min 43 sec)
Heartbeat CPU 13 instructions: 110000001 cycles: 27505263 heartbeat IPC: 4 cumulative IPC: 3.999 (Simulation time: 03 hr 11 min 43 sec)
Heartbeat CPU 3 instructions: 110000001 cycles: 27505264 heartbeat IPC: 4 cumulative IPC: 3.999 (Simulation time: 03 hr 11 min 43 sec)
*** Reached end of trace: (11, "traces/canneal_big1.champsimtrace")
*** Reached end of trace: (1, "traces/canneal_big1.champsimtrace")
*** Reached end of trace: (6, "traces/canneal_big1.champsimtrace")
*** Reached end of trace: (7, "traces/canneal_big2.champsimtrace")
*** Reached end of trace: (2, "traces/canneal_big2.champsimtrace")
*** Reached end of trace: (12, "traces/canneal_big2.champsimtrace")
*** Reached end of trace: (9, "traces/canneal_big4.champsimtrace")
*** Reached end of trace: (4, "traces/canneal_big4.champsimtrace")
*** Reached end of trace: (14, "traces/canneal_big4.champsimtrace")
*** Reached end of trace: (8, "traces/canneal_big3.champsimtrace")
*** Reached end of trace: (13, "traces/canneal_big3.champsimtrace")
*** Reached end of trace: (3, "traces/canneal_big3.champsimtrace")
*** Reached end of trace: (15, "traces/canneal_big0.champsimtrace")
*** Reached end of trace: (0, "traces/canneal_big0.champsimtrace")
*** Reached end of trace: (10, "traces/canneal_big0.champsimtrace")
*** Reached end of trace: (5, "traces/canneal_big0.champsimtrace")
*** Reached end of trace: (7, "traces/canneal_big2.champsimtrace")
*** Reached end of trace: (2, "traces/canneal_big2.champsimtrace")
*** Reached end of trace: (12, "traces/canneal_big2.champsimtrace")
*** Reached end of trace: (9, "traces/canneal_big4.champsimtrace")
*** Reached end of trace: (4, "traces/canneal_big4.champsimtrace")
*** Reached end of trace: (14, "traces/canneal_big4.champsimtrace")
*** Reached end of trace: (8, "traces/canneal_big3.champsimtrace")
*** Reached end of trace: (13, "traces/canneal_big3.champsimtrace")
*** Reached end of trace: (3, "traces/canneal_big3.champsimtrace")
Heartbeat CPU 7 instructions: 120000001 cycles: 30005205 heartbeat IPC: 4 cumulative IPC: 3.999 (Simulation time: 03 hr 28 min 16 sec)
Heartbeat CPU 2 instructions: 120000001 cycles: 30005211 heartbeat IPC: 4 cumulative IPC: 3.999 (Simulation time: 03 hr 28 min 16 sec)
Heartbeat CPU 12 instructions: 120000001 cycles: 30005220 heartbeat IPC: 4 cumulative IPC: 3.999 (Simulation time: 03 hr 28 min 16 sec)
Heartbeat CPU 9 instructions: 120000000 cycles: 30005239 heartbeat IPC: 4 cumulative IPC: 3.999 (Simulation time: 03 hr 28 min 16 sec)
Heartbeat CPU 14 instructions: 120000001 cycles: 30005247 heartbeat IPC: 4 cumulative IPC: 3.999 (Simulation time: 03 hr 28 min 16 sec)
Heartbeat CPU 4 instructions: 120000003 cycles: 30005248 heartbeat IPC: 4 cumulative IPC: 3.999 (Simulation time: 03 hr 28 min 16 sec)
Heartbeat CPU 8 instructions: 120000002 cycles: 30005259 heartbeat IPC: 4 cumulative IPC: 3.999 (Simulation time: 03 hr 28 min 16 sec)
Heartbeat CPU 13 instructions: 120000001 cycles: 30005263 heartbeat IPC: 4 cumulative IPC: 3.999 (Simulation time: 03 hr 28 min 16 sec)
Heartbeat CPU 3 instructions: 120000001 cycles: 30005264 heartbeat IPC: 4 cumulative IPC: 3.999 (Simulation time: 03 hr 28 min 16 sec)
*** Reached end of trace: (11, "traces/canneal_big1.champsimtrace")
Warmup finished CPU 11 instructions: 50000000 cycles: 30619960 cumulative IPC: 1.633 (Simulation time: 03 hr 32 min 05 sec)
Heartbeat CPU 11 instructions: 50000008 cycles: 30619983 heartbeat IPC: 1.757 cumulative IPC: 1.633 (Simulation time: 03 hr 32 min 05 sec)
*** Reached end of trace: (1, "traces/canneal_big1.champsimtrace")
Warmup finished CPU 1 instructions: 50000000 cycles: 30642428 cumulative IPC: 1.632 (Simulation time: 03 hr 32 min 16 sec)
Heartbeat CPU 1 instructions: 50000008 cycles: 30642446 heartbeat IPC: 1.756 cumulative IPC: 1.632 (Simulation time: 03 hr 32 min 16 sec)
*** Reached end of trace: (6, "traces/canneal_big1.champsimtrace")
Warmup finished CPU 6 instructions: 50000000 cycles: 30793152 cumulative IPC: 1.624 (Simulation time: 03 hr 33 min 16 sec)
Warmup complete CPU 9 instructions: 123151652 cycles: 30793152 cumulative IPC: 3.999 (Simulation time: 03 hr 33 min 16 sec)
Warmup complete CPU 8 instructions: 123151574 cycles: 30793152 cumulative IPC: 3.999 (Simulation time: 03 hr 33 min 16 sec)
Warmup complete CPU 7 instructions: 123151789 cycles: 30793152 cumulative IPC: 3.999 (Simulation time: 03 hr 33 min 16 sec)
Warmup complete CPU 6 instructions: 50000000 cycles: 30793152 cumulative IPC: 1.624 (Simulation time: 03 hr 33 min 16 sec)
Warmup complete CPU 5 instructions: 79338729 cycles: 30793152 cumulative IPC: 2.577 (Simulation time: 03 hr 33 min 16 sec)
Warmup complete CPU 4 instructions: 123151619 cycles: 30793152 cumulative IPC: 3.999 (Simulation time: 03 hr 33 min 16 sec)
Warmup complete CPU 3 instructions: 123151553 cycles: 30793152 cumulative IPC: 3.999 (Simulation time: 03 hr 33 min 16 sec)
Warmup complete CPU 2 instructions: 123151765 cycles: 30793152 cumulative IPC: 3.999 (Simulation time: 03 hr 33 min 16 sec)
Warmup complete CPU 15 instructions: 79537389 cycles: 30793152 cumulative IPC: 2.583 (Simulation time: 03 hr 33 min 16 sec)
Warmup complete CPU 14 instructions: 123151621 cycles: 30793152 cumulative IPC: 3.999 (Simulation time: 03 hr 33 min 16 sec)
Warmup complete CPU 13 instructions: 123151557 cycles: 30793152 cumulative IPC: 3.999 (Simulation time: 03 hr 33 min 16 sec)
Warmup complete CPU 12 instructions: 123151729 cycles: 30793152 cumulative IPC: 3.999 (Simulation time: 03 hr 33 min 16 sec)
Warmup complete CPU 11 instructions: 50266927 cycles: 30793152 cumulative IPC: 1.632 (Simulation time: 03 hr 33 min 16 sec)
Warmup complete CPU 10 instructions: 79530509 cycles: 30793152 cumulative IPC: 2.583 (Simulation time: 03 hr 33 min 16 sec)
Warmup complete CPU 1 instructions: 50228275 cycles: 30793152 cumulative IPC: 1.631 (Simulation time: 03 hr 33 min 16 sec)
Warmup complete CPU 0 instructions: 79530594 cycles: 30793152 cumulative IPC: 2.583 (Simulation time: 03 hr 33 min 16 sec)
Heartbeat CPU 6 instructions: 50000008 cycles: 30793782 heartbeat IPC: 1.747 cumulative IPC: 0.0127 (Simulation time: 03 hr 33 min 16 sec)
*** Reached end of trace: (7, "traces/canneal_big2.champsimtrace")
*** Reached end of trace: (2, "traces/canneal_big2.champsimtrace")
*** Reached end of trace: (12, "traces/canneal_big2.champsimtrace")
*** Reached end of trace: (9, "traces/canneal_big4.champsimtrace")
*** Reached end of trace: (4, "traces/canneal_big4.champsimtrace")
*** Reached end of trace: (14, "traces/canneal_big4.champsimtrace")
*** Reached end of trace: (8, "traces/canneal_big3.champsimtrace")
*** Reached end of trace: (13, "traces/canneal_big3.champsimtrace")
*** Reached end of trace: (3, "traces/canneal_big3.champsimtrace")
*** Reached end of trace: (15, "traces/canneal_big0.champsimtrace")
Heartbeat CPU 15 instructions: 80000021 cycles: 31337266 heartbeat IPC: 2.383 cumulative IPC: 0.8502 (Simulation time: 03 hr 36 min 45 sec)
*** Reached end of trace: (10, "traces/canneal_big0.champsimtrace")
Heartbeat CPU 10 instructions: 80000024 cycles: 31345772 heartbeat IPC: 2.38 cumulative IPC: 0.8496 (Simulation time: 03 hr 36 min 49 sec)
*** Reached end of trace: (0, "traces/canneal_big0.champsimtrace")
Heartbeat CPU 0 instructions: 80000024 cycles: 31349637 heartbeat IPC: 2.378 cumulative IPC: 0.8436 (Simulation time: 03 hr 36 min 50 sec)
*** Reached end of trace: (5, "traces/canneal_big0.champsimtrace")
Heartbeat CPU 5 instructions: 80000021 cycles: 31492018 heartbeat IPC: 2.337 cumulative IPC: 0.9462 (Simulation time: 03 hr 37 min 47 sec)
*** Reached end of trace: (7, "traces/canneal_big2.champsimtrace")
*** Reached end of trace: (2, "traces/canneal_big2.champsimtrace")
*** Reached end of trace: (12, "traces/canneal_big2.champsimtrace")
*** Reached end of trace: (9, "traces/canneal_big4.champsimtrace")
*** Reached end of trace: (14, "traces/canneal_big4.champsimtrace")
*** Reached end of trace: (4, "traces/canneal_big4.champsimtrace")
*** Reached end of trace: (8, "traces/canneal_big3.champsimtrace")
*** Reached end of trace: (13, "traces/canneal_big3.champsimtrace")
*** Reached end of trace: (3, "traces/canneal_big3.champsimtrace")
Heartbeat CPU 7 instructions: 130000001 cycles: 32505205 heartbeat IPC: 4 cumulative IPC: 4 (Simulation time: 03 hr 43 min 55 sec)
Heartbeat CPU 2 instructions: 130000001 cycles: 32505211 heartbeat IPC: 4 cumulative IPC: 4 (Simulation time: 03 hr 43 min 55 sec)
Heartbeat CPU 12 instructions: 130000001 cycles: 32505220 heartbeat IPC: 4 cumulative IPC: 4 (Simulation time: 03 hr 43 min 55 sec)
Heartbeat CPU 9 instructions: 130000000 cycles: 32505239 heartbeat IPC: 4 cumulative IPC: 4 (Simulation time: 03 hr 43 min 55 sec)
Heartbeat CPU 14 instructions: 130000001 cycles: 32505247 heartbeat IPC: 4 cumulative IPC: 4 (Simulation time: 03 hr 43 min 55 sec)
Heartbeat CPU 4 instructions: 130000003 cycles: 32505248 heartbeat IPC: 4 cumulative IPC: 4 (Simulation time: 03 hr 43 min 55 sec)
Heartbeat CPU 8 instructions: 130000002 cycles: 32505259 heartbeat IPC: 4 cumulative IPC: 4 (Simulation time: 03 hr 43 min 55 sec)
Heartbeat CPU 13 instructions: 130000001 cycles: 32505263 heartbeat IPC: 4 cumulative IPC: 4 (Simulation time: 03 hr 43 min 55 sec)
Heartbeat CPU 3 instructions: 130000001 cycles: 32505264 heartbeat IPC: 4 cumulative IPC: 4 (Simulation time: 03 hr 43 min 55 sec)
*** Reached end of trace: (7, "traces/canneal_big2.champsimtrace")
*** Reached end of trace: (2, "traces/canneal_big2.champsimtrace")
*** Reached end of trace: (12, "traces/canneal_big2.champsimtrace")
*** Reached end of trace: (9, "traces/canneal_big4.champsimtrace")
*** Reached end of trace: (14, "traces/canneal_big4.champsimtrace")
*** Reached end of trace: (4, "traces/canneal_big4.champsimtrace")
*** Reached end of trace: (8, "traces/canneal_big3.champsimtrace")
*** Reached end of trace: (13, "traces/canneal_big3.champsimtrace")
*** Reached end of trace: (3, "traces/canneal_big3.champsimtrace")
*** Reached end of trace: (7, "traces/canneal_big2.champsimtrace")
*** Reached end of trace: (2, "traces/canneal_big2.champsimtrace")
*** Reached end of trace: (12, "traces/canneal_big2.champsimtrace")
*** Reached end of trace: (9, "traces/canneal_big4.champsimtrace")
*** Reached end of trace: (4, "traces/canneal_big4.champsimtrace")
*** Reached end of trace: (14, "traces/canneal_big4.champsimtrace")
*** Reached end of trace: (8, "traces/canneal_big3.champsimtrace")
*** Reached end of trace: (13, "traces/canneal_big3.champsimtrace")
*** Reached end of trace: (3, "traces/canneal_big3.champsimtrace")
Heartbeat CPU 7 instructions: 140000001 cycles: 35005205 heartbeat IPC: 4 cumulative IPC: 4 (Simulation time: 03 hr 58 min 37 sec)
Heartbeat CPU 2 instructions: 140000001 cycles: 35005211 heartbeat IPC: 4 cumulative IPC: 4 (Simulation time: 03 hr 58 min 37 sec)
Heartbeat CPU 12 instructions: 140000001 cycles: 35005220 heartbeat IPC: 4 cumulative IPC: 4 (Simulation time: 03 hr 58 min 37 sec)
Heartbeat CPU 9 instructions: 140000000 cycles: 35005239 heartbeat IPC: 4 cumulative IPC: 4 (Simulation time: 03 hr 58 min 37 sec)
Heartbeat CPU 14 instructions: 140000001 cycles: 35005247 heartbeat IPC: 4 cumulative IPC: 4 (Simulation time: 03 hr 58 min 37 sec)
Heartbeat CPU 4 instructions: 140000003 cycles: 35005248 heartbeat IPC: 4 cumulative IPC: 4 (Simulation time: 03 hr 58 min 37 sec)
Heartbeat CPU 8 instructions: 140000002 cycles: 35005259 heartbeat IPC: 4 cumulative IPC: 4 (Simulation time: 03 hr 58 min 37 sec)
Heartbeat CPU 13 instructions: 140000001 cycles: 35005263 heartbeat IPC: 4 cumulative IPC: 4 (Simulation time: 03 hr 58 min 37 sec)
Heartbeat CPU 3 instructions: 140000001 cycles: 35005264 heartbeat IPC: 4 cumulative IPC: 4 (Simulation time: 03 hr 58 min 37 sec)
*** Reached end of trace: (15, "traces/canneal_big0.champsimtrace")
*** Reached end of trace: (0, "traces/canneal_big0.champsimtrace")
*** Reached end of trace: (10, "traces/canneal_big0.champsimtrace")
*** Reached end of trace: (7, "traces/canneal_big2.champsimtrace")
*** Reached end of trace: (2, "traces/canneal_big2.champsimtrace")
*** Reached end of trace: (12, "traces/canneal_big2.champsimtrace")
*** Reached end of trace: (9, "traces/canneal_big4.champsimtrace")
*** Reached end of trace: (4, "traces/canneal_big4.champsimtrace")
*** Reached end of trace: (14, "traces/canneal_big4.champsimtrace")
*** Reached end of trace: (8, "traces/canneal_big3.champsimtrace")
*** Reached end of trace: (13, "traces/canneal_big3.champsimtrace")
*** Reached end of trace: (3, "traces/canneal_big3.champsimtrace")
*** Reached end of trace: (5, "traces/canneal_big0.champsimtrace")
*** Reached end of trace: (7, "traces/canneal_big2.champsimtrace")
*** Reached end of trace: (2, "traces/canneal_big2.champsimtrace")
*** Reached end of trace: (12, "traces/canneal_big2.champsimtrace")
*** Reached end of trace: (9, "traces/canneal_big4.champsimtrace")
*** Reached end of trace: (14, "traces/canneal_big4.champsimtrace")
*** Reached end of trace: (4, "traces/canneal_big4.champsimtrace")
*** Reached end of trace: (8, "traces/canneal_big3.champsimtrace")
*** Reached end of trace: (13, "traces/canneal_big3.champsimtrace")
*** Reached end of trace: (3, "traces/canneal_big3.champsimtrace")
Heartbeat CPU 7 instructions: 150000001 cycles: 37505205 heartbeat IPC: 4 cumulative IPC: 4 (Simulation time: 04 hr 13 min 38 sec)
Heartbeat CPU 2 instructions: 150000001 cycles: 37505211 heartbeat IPC: 4 cumulative IPC: 4 (Simulation time: 04 hr 13 min 38 sec)
Heartbeat CPU 12 instructions: 150000001 cycles: 37505220 heartbeat IPC: 4 cumulative IPC: 4 (Simulation time: 04 hr 13 min 38 sec)
Heartbeat CPU 9 instructions: 150000000 cycles: 37505239 heartbeat IPC: 4 cumulative IPC: 4 (Simulation time: 04 hr 13 min 38 sec)
Heartbeat CPU 14 instructions: 150000001 cycles: 37505247 heartbeat IPC: 4 cumulative IPC: 4 (Simulation time: 04 hr 13 min 38 sec)
Heartbeat CPU 4 instructions: 150000003 cycles: 37505248 heartbeat IPC: 4 cumulative IPC: 4 (Simulation time: 04 hr 13 min 38 sec)
Heartbeat CPU 8 instructions: 150000002 cycles: 37505259 heartbeat IPC: 4 cumulative IPC: 4 (Simulation time: 04 hr 13 min 38 sec)
Heartbeat CPU 13 instructions: 150000001 cycles: 37505263 heartbeat IPC: 4 cumulative IPC: 4 (Simulation time: 04 hr 13 min 38 sec)
Heartbeat CPU 3 instructions: 150000001 cycles: 37505264 heartbeat IPC: 4 cumulative IPC: 4 (Simulation time: 04 hr 13 min 38 sec)
*** Reached end of trace: (7, "traces/canneal_big2.champsimtrace")
*** Reached end of trace: (2, "traces/canneal_big2.champsimtrace")
*** Reached end of trace: (12, "traces/canneal_big2.champsimtrace")
*** Reached end of trace: (9, "traces/canneal_big4.champsimtrace")
*** Reached end of trace: (14, "traces/canneal_big4.champsimtrace")
*** Reached end of trace: (4, "traces/canneal_big4.champsimtrace")
*** Reached end of trace: (8, "traces/canneal_big3.champsimtrace")
*** Reached end of trace: (13, "traces/canneal_big3.champsimtrace")
*** Reached end of trace: (3, "traces/canneal_big3.champsimtrace")
*** Reached end of trace: (7, "traces/canneal_big2.champsimtrace")
*** Reached end of trace: (2, "traces/canneal_big2.champsimtrace")
*** Reached end of trace: (12, "traces/canneal_big2.champsimtrace")
*** Reached end of trace: (9, "traces/canneal_big4.champsimtrace")
*** Reached end of trace: (4, "traces/canneal_big4.champsimtrace")
*** Reached end of trace: (14, "traces/canneal_big4.champsimtrace")
*** Reached end of trace: (8, "traces/canneal_big3.champsimtrace")
*** Reached end of trace: (13, "traces/canneal_big3.champsimtrace")
*** Reached end of trace: (3, "traces/canneal_big3.champsimtrace")
Heartbeat CPU 7 instructions: 160000001 cycles: 40005205 heartbeat IPC: 4 cumulative IPC: 4 (Simulation time: 04 hr 28 min 49 sec)
Heartbeat CPU 2 instructions: 160000001 cycles: 40005211 heartbeat IPC: 4 cumulative IPC: 4 (Simulation time: 04 hr 28 min 49 sec)
Heartbeat CPU 12 instructions: 160000001 cycles: 40005220 heartbeat IPC: 4 cumulative IPC: 4 (Simulation time: 04 hr 28 min 49 sec)
Heartbeat CPU 9 instructions: 160000000 cycles: 40005239 heartbeat IPC: 4 cumulative IPC: 4 (Simulation time: 04 hr 28 min 49 sec)
Heartbeat CPU 14 instructions: 160000001 cycles: 40005247 heartbeat IPC: 4 cumulative IPC: 4 (Simulation time: 04 hr 28 min 49 sec)
Heartbeat CPU 4 instructions: 160000003 cycles: 40005248 heartbeat IPC: 4 cumulative IPC: 4 (Simulation time: 04 hr 28 min 49 sec)
Heartbeat CPU 8 instructions: 160000002 cycles: 40005259 heartbeat IPC: 4 cumulative IPC: 4 (Simulation time: 04 hr 28 min 49 sec)
Heartbeat CPU 13 instructions: 160000001 cycles: 40005263 heartbeat IPC: 4 cumulative IPC: 4 (Simulation time: 04 hr 28 min 49 sec)
Heartbeat CPU 3 instructions: 160000001 cycles: 40005264 heartbeat IPC: 4 cumulative IPC: 4 (Simulation time: 04 hr 28 min 49 sec)
*** Reached end of trace: (0, "traces/canneal_big0.champsimtrace")
Heartbeat CPU 0 instructions: 90000027 cycles: 41010023 heartbeat IPC: 1.035 cumulative IPC: 1.025 (Simulation time: 04 hr 34 min 31 sec)
*** Reached end of trace: (15, "traces/canneal_big0.champsimtrace")
Heartbeat CPU 15 instructions: 90000024 cycles: 41032632 heartbeat IPC: 1.031 cumulative IPC: 1.022 (Simulation time: 04 hr 34 min 38 sec)
*** Reached end of trace: (10, "traces/canneal_big0.champsimtrace")
Heartbeat CPU 10 instructions: 90000027 cycles: 41076941 heartbeat IPC: 1.028 cumulative IPC: 1.018 (Simulation time: 04 hr 34 min 53 sec)
*** Reached end of trace: (7, "traces/canneal_big2.champsimtrace")
*** Reached end of trace: (2, "traces/canneal_big2.champsimtrace")
*** Reached end of trace: (12, "traces/canneal_big2.champsimtrace")
*** Reached end of trace: (9, "traces/canneal_big4.champsimtrace")
*** Reached end of trace: (4, "traces/canneal_big4.champsimtrace")
*** Reached end of trace: (14, "traces/canneal_big4.champsimtrace")
*** Reached end of trace: (8, "traces/canneal_big3.champsimtrace")
*** Reached end of trace: (13, "traces/canneal_big3.champsimtrace")
*** Reached end of trace: (3, "traces/canneal_big3.champsimtrace")
*** Reached end of trace: (5, "traces/canneal_big0.champsimtrace")
Heartbeat CPU 5 instructions: 90000024 cycles: 41336952 heartbeat IPC: 1.016 cumulative IPC: 1.011 (Simulation time: 04 hr 36 min 43 sec)
*** Reached end of trace: (7, "traces/canneal_big2.champsimtrace")
*** Reached end of trace: (2, "traces/canneal_big2.champsimtrace")
*** Reached end of trace: (12, "traces/canneal_big2.champsimtrace")
*** Reached end of trace: (9, "traces/canneal_big4.champsimtrace")
*** Reached end of trace: (14, "traces/canneal_big4.champsimtrace")
*** Reached end of trace: (4, "traces/canneal_big4.champsimtrace")
*** Reached end of trace: (8, "traces/canneal_big3.champsimtrace")
*** Reached end of trace: (13, "traces/canneal_big3.champsimtrace")
*** Reached end of trace: (3, "traces/canneal_big3.champsimtrace")
Heartbeat CPU 7 instructions: 170000001 cycles: 42505205 heartbeat IPC: 4 cumulative IPC: 4 (Simulation time: 04 hr 43 min 38 sec)
Heartbeat CPU 2 instructions: 170000001 cycles: 42505211 heartbeat IPC: 4 cumulative IPC: 4 (Simulation time: 04 hr 43 min 38 sec)
Heartbeat CPU 12 instructions: 170000001 cycles: 42505220 heartbeat IPC: 4 cumulative IPC: 4 (Simulation time: 04 hr 43 min 38 sec)
Heartbeat CPU 9 instructions: 170000000 cycles: 42505239 heartbeat IPC: 4 cumulative IPC: 4 (Simulation time: 04 hr 43 min 38 sec)
Heartbeat CPU 14 instructions: 170000001 cycles: 42505247 heartbeat IPC: 4 cumulative IPC: 4 (Simulation time: 04 hr 43 min 38 sec)
Heartbeat CPU 4 instructions: 170000003 cycles: 42505248 heartbeat IPC: 4 cumulative IPC: 4 (Simulation time: 04 hr 43 min 38 sec)
Heartbeat CPU 8 instructions: 170000002 cycles: 42505259 heartbeat IPC: 4 cumulative IPC: 4 (Simulation time: 04 hr 43 min 38 sec)
Heartbeat CPU 13 instructions: 170000001 cycles: 42505263 heartbeat IPC: 4 cumulative IPC: 4 (Simulation time: 04 hr 43 min 38 sec)
Heartbeat CPU 3 instructions: 170000001 cycles: 42505264 heartbeat IPC: 4 cumulative IPC: 4 (Simulation time: 04 hr 43 min 38 sec)
*** Reached end of trace: (7, "traces/canneal_big2.champsimtrace")
*** Reached end of trace: (2, "traces/canneal_big2.champsimtrace")
*** Reached end of trace: (12, "traces/canneal_big2.champsimtrace")
*** Reached end of trace: (9, "traces/canneal_big4.champsimtrace")
*** Reached end of trace: (14, "traces/canneal_big4.champsimtrace")
*** Reached end of trace: (4, "traces/canneal_big4.champsimtrace")
*** Reached end of trace: (8, "traces/canneal_big3.champsimtrace")
*** Reached end of trace: (13, "traces/canneal_big3.champsimtrace")
*** Reached end of trace: (3, "traces/canneal_big3.champsimtrace")
*** Reached end of trace: (7, "traces/canneal_big2.champsimtrace")
*** Reached end of trace: (2, "traces/canneal_big2.champsimtrace")
*** Reached end of trace: (12, "traces/canneal_big2.champsimtrace")
*** Reached end of trace: (9, "traces/canneal_big4.champsimtrace")
*** Reached end of trace: (4, "traces/canneal_big4.champsimtrace")
*** Reached end of trace: (14, "traces/canneal_big4.champsimtrace")
*** Reached end of trace: (8, "traces/canneal_big3.champsimtrace")
*** Reached end of trace: (13, "traces/canneal_big3.champsimtrace")
*** Reached end of trace: (3, "traces/canneal_big3.champsimtrace")
Heartbeat CPU 7 instructions: 180000001 cycles: 45005205 heartbeat IPC: 4 cumulative IPC: 4 (Simulation time: 04 hr 58 min 51 sec)
Heartbeat CPU 2 instructions: 180000001 cycles: 45005211 heartbeat IPC: 4 cumulative IPC: 4 (Simulation time: 04 hr 58 min 51 sec)
Heartbeat CPU 12 instructions: 180000001 cycles: 45005220 heartbeat IPC: 4 cumulative IPC: 4 (Simulation time: 04 hr 58 min 51 sec)
Heartbeat CPU 9 instructions: 180000000 cycles: 45005239 heartbeat IPC: 4 cumulative IPC: 4 (Simulation time: 04 hr 58 min 51 sec)
Heartbeat CPU 14 instructions: 180000001 cycles: 45005247 heartbeat IPC: 4 cumulative IPC: 4 (Simulation time: 04 hr 58 min 51 sec)
Heartbeat CPU 4 instructions: 180000003 cycles: 45005248 heartbeat IPC: 4 cumulative IPC: 4 (Simulation time: 04 hr 58 min 51 sec)
Heartbeat CPU 8 instructions: 180000002 cycles: 45005259 heartbeat IPC: 4 cumulative IPC: 4 (Simulation time: 04 hr 58 min 51 sec)
Heartbeat CPU 13 instructions: 180000001 cycles: 45005263 heartbeat IPC: 4 cumulative IPC: 4 (Simulation time: 04 hr 58 min 51 sec)
Heartbeat CPU 3 instructions: 180000001 cycles: 45005264 heartbeat IPC: 4 cumulative IPC: 4 (Simulation time: 04 hr 58 min 51 sec)
*** Reached end of trace: (0, "traces/canneal_big0.champsimtrace")
*** Reached end of trace: (15, "traces/canneal_big0.champsimtrace")
*** Reached end of trace: (10, "traces/canneal_big0.champsimtrace")
*** Reached end of trace: (5, "traces/canneal_big0.champsimtrace")
*** Reached end of trace: (7, "traces/canneal_big2.champsimtrace")
*** Reached end of trace: (2, "traces/canneal_big2.champsimtrace")
*** Reached end of trace: (12, "traces/canneal_big2.champsimtrace")
*** Reached end of trace: (9, "traces/canneal_big4.champsimtrace")
*** Reached end of trace: (4, "traces/canneal_big4.champsimtrace")
*** Reached end of trace: (14, "traces/canneal_big4.champsimtrace")
*** Reached end of trace: (8, "traces/canneal_big3.champsimtrace")
*** Reached end of trace: (13, "traces/canneal_big3.champsimtrace")
*** Reached end of trace: (3, "traces/canneal_big3.champsimtrace")
*** Reached end of trace: (7, "traces/canneal_big2.champsimtrace")
*** Reached end of trace: (2, "traces/canneal_big2.champsimtrace")
*** Reached end of trace: (12, "traces/canneal_big2.champsimtrace")
*** Reached end of trace: (9, "traces/canneal_big4.champsimtrace")
*** Reached end of trace: (14, "traces/canneal_big4.champsimtrace")
*** Reached end of trace: (4, "traces/canneal_big4.champsimtrace")
*** Reached end of trace: (8, "traces/canneal_big3.champsimtrace")
*** Reached end of trace: (13, "traces/canneal_big3.champsimtrace")
*** Reached end of trace: (3, "traces/canneal_big3.champsimtrace")
Heartbeat CPU 7 instructions: 190000001 cycles: 47505205 heartbeat IPC: 4 cumulative IPC: 4 (Simulation time: 05 hr 13 min 41 sec)
Heartbeat CPU 2 instructions: 190000001 cycles: 47505211 heartbeat IPC: 4 cumulative IPC: 4 (Simulation time: 05 hr 13 min 41 sec)
Heartbeat CPU 12 instructions: 190000001 cycles: 47505220 heartbeat IPC: 4 cumulative IPC: 4 (Simulation time: 05 hr 13 min 41 sec)
Heartbeat CPU 9 instructions: 190000000 cycles: 47505239 heartbeat IPC: 4 cumulative IPC: 4 (Simulation time: 05 hr 13 min 41 sec)
Heartbeat CPU 14 instructions: 190000001 cycles: 47505247 heartbeat IPC: 4 cumulative IPC: 4 (Simulation time: 05 hr 13 min 41 sec)
Heartbeat CPU 4 instructions: 190000003 cycles: 47505248 heartbeat IPC: 4 cumulative IPC: 4 (Simulation time: 05 hr 13 min 41 sec)
Heartbeat CPU 8 instructions: 190000002 cycles: 47505259 heartbeat IPC: 4 cumulative IPC: 4 (Simulation time: 05 hr 13 min 41 sec)
Heartbeat CPU 13 instructions: 190000001 cycles: 47505263 heartbeat IPC: 4 cumulative IPC: 4 (Simulation time: 05 hr 13 min 41 sec)
Heartbeat CPU 3 instructions: 190000001 cycles: 47505264 heartbeat IPC: 4 cumulative IPC: 4 (Simulation time: 05 hr 13 min 41 sec)
*** Reached end of trace: (7, "traces/canneal_big2.champsimtrace")
*** Reached end of trace: (2, "traces/canneal_big2.champsimtrace")
*** Reached end of trace: (12, "traces/canneal_big2.champsimtrace")
*** Reached end of trace: (9, "traces/canneal_big4.champsimtrace")
*** Reached end of trace: (14, "traces/canneal_big4.champsimtrace")
*** Reached end of trace: (4, "traces/canneal_big4.champsimtrace")
*** Reached end of trace: (8, "traces/canneal_big3.champsimtrace")
*** Reached end of trace: (13, "traces/canneal_big3.champsimtrace")
*** Reached end of trace: (3, "traces/canneal_big3.champsimtrace")
*** Reached end of trace: (7, "traces/canneal_big2.champsimtrace")
*** Reached end of trace: (2, "traces/canneal_big2.champsimtrace")
*** Reached end of trace: (12, "traces/canneal_big2.champsimtrace")
*** Reached end of trace: (9, "traces/canneal_big4.champsimtrace")
*** Reached end of trace: (4, "traces/canneal_big4.champsimtrace")
*** Reached end of trace: (14, "traces/canneal_big4.champsimtrace")
*** Reached end of trace: (8, "traces/canneal_big3.champsimtrace")
*** Reached end of trace: (13, "traces/canneal_big3.champsimtrace")
*** Reached end of trace: (3, "traces/canneal_big3.champsimtrace")
Heartbeat CPU 7 instructions: 200000001 cycles: 50005205 heartbeat IPC: 4 cumulative IPC: 4 (Simulation time: 05 hr 27 min 47 sec)
Heartbeat CPU 2 instructions: 200000001 cycles: 50005211 heartbeat IPC: 4 cumulative IPC: 4 (Simulation time: 05 hr 27 min 47 sec)
Heartbeat CPU 12 instructions: 200000001 cycles: 50005220 heartbeat IPC: 4 cumulative IPC: 4 (Simulation time: 05 hr 27 min 47 sec)
Heartbeat CPU 9 instructions: 200000000 cycles: 50005239 heartbeat IPC: 4 cumulative IPC: 4 (Simulation time: 05 hr 27 min 47 sec)
Heartbeat CPU 14 instructions: 200000001 cycles: 50005247 heartbeat IPC: 4 cumulative IPC: 4 (Simulation time: 05 hr 27 min 47 sec)
Heartbeat CPU 4 instructions: 200000003 cycles: 50005248 heartbeat IPC: 4 cumulative IPC: 4 (Simulation time: 05 hr 27 min 47 sec)
Heartbeat CPU 8 instructions: 200000002 cycles: 50005259 heartbeat IPC: 4 cumulative IPC: 4 (Simulation time: 05 hr 27 min 47 sec)
Heartbeat CPU 13 instructions: 200000001 cycles: 50005263 heartbeat IPC: 4 cumulative IPC: 4 (Simulation time: 05 hr 27 min 47 sec)
Heartbeat CPU 3 instructions: 200000001 cycles: 50005264 heartbeat IPC: 4 cumulative IPC: 4 (Simulation time: 05 hr 27 min 47 sec)
*** Reached end of trace: (0, "traces/canneal_big0.champsimtrace")
Heartbeat CPU 0 instructions: 100000030 cycles: 50567592 heartbeat IPC: 1.046 cumulative IPC: 1.035 (Simulation time: 05 hr 30 min 55 sec)
*** Reached end of trace: (15, "traces/canneal_big0.champsimtrace")
Heartbeat CPU 15 instructions: 100000027 cycles: 50651926 heartbeat IPC: 1.04 cumulative IPC: 1.03 (Simulation time: 05 hr 31 min 21 sec)
*** Reached end of trace: (10, "traces/canneal_big0.champsimtrace")
Heartbeat CPU 10 instructions: 100000030 cycles: 50756729 heartbeat IPC: 1.033 cumulative IPC: 1.025 (Simulation time: 05 hr 31 min 58 sec)
*** Reached end of trace: (5, "traces/canneal_big0.champsimtrace")
Heartbeat CPU 5 instructions: 100000025 cycles: 51136922 heartbeat IPC: 1.02 cumulative IPC: 1.016 (Simulation time: 05 hr 34 min 22 sec)
*** Reached end of trace: (7, "traces/canneal_big2.champsimtrace")
*** Reached end of trace: (2, "traces/canneal_big2.champsimtrace")
*** Reached end of trace: (12, "traces/canneal_big2.champsimtrace")
*** Reached end of trace: (9, "traces/canneal_big4.champsimtrace")
*** Reached end of trace: (4, "traces/canneal_big4.champsimtrace")
*** Reached end of trace: (14, "traces/canneal_big4.champsimtrace")
*** Reached end of trace: (8, "traces/canneal_big3.champsimtrace")
*** Reached end of trace: (13, "traces/canneal_big3.champsimtrace")
*** Reached end of trace: (3, "traces/canneal_big3.champsimtrace")
*** Reached end of trace: (7, "traces/canneal_big2.champsimtrace")
*** Reached end of trace: (2, "traces/canneal_big2.champsimtrace")
*** Reached end of trace: (12, "traces/canneal_big2.champsimtrace")
*** Reached end of trace: (9, "traces/canneal_big4.champsimtrace")
*** Reached end of trace: (14, "traces/canneal_big4.champsimtrace")
*** Reached end of trace: (4, "traces/canneal_big4.champsimtrace")
*** Reached end of trace: (8, "traces/canneal_big3.champsimtrace")
*** Reached end of trace: (13, "traces/canneal_big3.champsimtrace")
*** Reached end of trace: (3, "traces/canneal_big3.champsimtrace")
Heartbeat CPU 7 instructions: 210000001 cycles: 52505205 heartbeat IPC: 4 cumulative IPC: 4 (Simulation time: 05 hr 42 min 29 sec)
Heartbeat CPU 2 instructions: 210000001 cycles: 52505211 heartbeat IPC: 4 cumulative IPC: 4 (Simulation time: 05 hr 42 min 29 sec)
Heartbeat CPU 12 instructions: 210000001 cycles: 52505220 heartbeat IPC: 4 cumulative IPC: 4 (Simulation time: 05 hr 42 min 29 sec)
Heartbeat CPU 9 instructions: 210000000 cycles: 52505239 heartbeat IPC: 4 cumulative IPC: 4 (Simulation time: 05 hr 42 min 29 sec)
Heartbeat CPU 14 instructions: 210000001 cycles: 52505247 heartbeat IPC: 4 cumulative IPC: 4 (Simulation time: 05 hr 42 min 29 sec)
Heartbeat CPU 4 instructions: 210000003 cycles: 52505248 heartbeat IPC: 4 cumulative IPC: 4 (Simulation time: 05 hr 42 min 29 sec)
Heartbeat CPU 8 instructions: 210000002 cycles: 52505259 heartbeat IPC: 4 cumulative IPC: 4 (Simulation time: 05 hr 42 min 29 sec)
Heartbeat CPU 13 instructions: 210000001 cycles: 52505263 heartbeat IPC: 4 cumulative IPC: 4 (Simulation time: 05 hr 42 min 29 sec)
Heartbeat CPU 3 instructions: 210000001 cycles: 52505264 heartbeat IPC: 4 cumulative IPC: 4 (Simulation time: 05 hr 42 min 29 sec)
*** Reached end of trace: (7, "traces/canneal_big2.champsimtrace")
*** Reached end of trace: (2, "traces/canneal_big2.champsimtrace")
*** Reached end of trace: (12, "traces/canneal_big2.champsimtrace")
*** Reached end of trace: (9, "traces/canneal_big4.champsimtrace")
*** Reached end of trace: (14, "traces/canneal_big4.champsimtrace")
*** Reached end of trace: (4, "traces/canneal_big4.champsimtrace")
*** Reached end of trace: (8, "traces/canneal_big3.champsimtrace")
*** Reached end of trace: (13, "traces/canneal_big3.champsimtrace")
*** Reached end of trace: (3, "traces/canneal_big3.champsimtrace")
*** Reached end of trace: (7, "traces/canneal_big2.champsimtrace")
*** Reached end of trace: (2, "traces/canneal_big2.champsimtrace")
*** Reached end of trace: (12, "traces/canneal_big2.champsimtrace")
*** Reached end of trace: (9, "traces/canneal_big4.champsimtrace")
*** Reached end of trace: (4, "traces/canneal_big4.champsimtrace")
*** Reached end of trace: (14, "traces/canneal_big4.champsimtrace")
*** Reached end of trace: (8, "traces/canneal_big3.champsimtrace")
*** Reached end of trace: (13, "traces/canneal_big3.champsimtrace")
*** Reached end of trace: (3, "traces/canneal_big3.champsimtrace")
Heartbeat CPU 7 instructions: 220000001 cycles: 55005205 heartbeat IPC: 4 cumulative IPC: 4 (Simulation time: 05 hr 56 min 43 sec)
Heartbeat CPU 2 instructions: 220000001 cycles: 55005211 heartbeat IPC: 4 cumulative IPC: 4 (Simulation time: 05 hr 56 min 44 sec)
Heartbeat CPU 12 instructions: 220000001 cycles: 55005220 heartbeat IPC: 4 cumulative IPC: 4 (Simulation time: 05 hr 56 min 44 sec)
Heartbeat CPU 9 instructions: 220000000 cycles: 55005239 heartbeat IPC: 4 cumulative IPC: 4 (Simulation time: 05 hr 56 min 44 sec)
Heartbeat CPU 14 instructions: 220000001 cycles: 55005247 heartbeat IPC: 4 cumulative IPC: 4 (Simulation time: 05 hr 56 min 44 sec)
Heartbeat CPU 4 instructions: 220000003 cycles: 55005248 heartbeat IPC: 4 cumulative IPC: 4 (Simulation time: 05 hr 56 min 44 sec)
Heartbeat CPU 8 instructions: 220000002 cycles: 55005259 heartbeat IPC: 4 cumulative IPC: 4 (Simulation time: 05 hr 56 min 44 sec)
Heartbeat CPU 13 instructions: 220000001 cycles: 55005263 heartbeat IPC: 4 cumulative IPC: 4 (Simulation time: 05 hr 56 min 44 sec)
Heartbeat CPU 3 instructions: 220000001 cycles: 55005264 heartbeat IPC: 4 cumulative IPC: 4 (Simulation time: 05 hr 56 min 44 sec)
*** Reached end of trace: (0, "traces/canneal_big0.champsimtrace")
*** Reached end of trace: (15, "traces/canneal_big0.champsimtrace")
*** Reached end of trace: (10, "traces/canneal_big0.champsimtrace")
Simulation finished CPU 9 instructions: 100000000 cycles: 25000000 cumulative IPC: 4 (Simulation time: 06 hr 01 min 16 sec)
Simulation finished CPU 8 instructions: 100000000 cycles: 25000000 cumulative IPC: 4 (Simulation time: 06 hr 01 min 16 sec)
Simulation finished CPU 7 instructions: 100000000 cycles: 25000000 cumulative IPC: 4 (Simulation time: 06 hr 01 min 16 sec)
Simulation finished CPU 4 instructions: 100000000 cycles: 25000000 cumulative IPC: 4 (Simulation time: 06 hr 01 min 16 sec)
Simulation finished CPU 3 instructions: 100000000 cycles: 25000000 cumulative IPC: 4 (Simulation time: 06 hr 01 min 16 sec)
Simulation finished CPU 2 instructions: 100000000 cycles: 25000000 cumulative IPC: 4 (Simulation time: 06 hr 01 min 16 sec)
Simulation finished CPU 14 instructions: 100000000 cycles: 25000000 cumulative IPC: 4 (Simulation time: 06 hr 01 min 16 sec)
Simulation finished CPU 13 instructions: 100000000 cycles: 25000000 cumulative IPC: 4 (Simulation time: 06 hr 01 min 16 sec)
Simulation finished CPU 12 instructions: 100000000 cycles: 25000000 cumulative IPC: 4 (Simulation time: 06 hr 01 min 16 sec)
*** Reached end of trace: (5, "traces/canneal_big0.champsimtrace")
*** Reached end of trace: (7, "traces/canneal_big2.champsimtrace")
*** Reached end of trace: (2, "traces/canneal_big2.champsimtrace")
*** Reached end of trace: (12, "traces/canneal_big2.champsimtrace")
*** Reached end of trace: (9, "traces/canneal_big4.champsimtrace")
*** Reached end of trace: (4, "traces/canneal_big4.champsimtrace")
*** Reached end of trace: (14, "traces/canneal_big4.champsimtrace")
*** Reached end of trace: (8, "traces/canneal_big3.champsimtrace")
*** Reached end of trace: (13, "traces/canneal_big3.champsimtrace")
*** Reached end of trace: (3, "traces/canneal_big3.champsimtrace")
*** Reached end of trace: (7, "traces/canneal_big2.champsimtrace")
*** Reached end of trace: (2, "traces/canneal_big2.champsimtrace")
*** Reached end of trace: (12, "traces/canneal_big2.champsimtrace")
*** Reached end of trace: (9, "traces/canneal_big4.champsimtrace")
*** Reached end of trace: (14, "traces/canneal_big4.champsimtrace")
*** Reached end of trace: (4, "traces/canneal_big4.champsimtrace")
*** Reached end of trace: (8, "traces/canneal_big3.champsimtrace")
*** Reached end of trace: (13, "traces/canneal_big3.champsimtrace")
*** Reached end of trace: (3, "traces/canneal_big3.champsimtrace")
Heartbeat CPU 7 instructions: 230000001 cycles: 57505205 heartbeat IPC: 4 cumulative IPC: 4 (Simulation time: 06 hr 11 min 10 sec)
Heartbeat CPU 2 instructions: 230000001 cycles: 57505211 heartbeat IPC: 4 cumulative IPC: 4 (Simulation time: 06 hr 11 min 10 sec)
Heartbeat CPU 12 instructions: 230000001 cycles: 57505220 heartbeat IPC: 4 cumulative IPC: 4 (Simulation time: 06 hr 11 min 10 sec)
Heartbeat CPU 9 instructions: 230000000 cycles: 57505239 heartbeat IPC: 4 cumulative IPC: 4 (Simulation time: 06 hr 11 min 10 sec)
Heartbeat CPU 14 instructions: 230000001 cycles: 57505247 heartbeat IPC: 4 cumulative IPC: 4 (Simulation time: 06 hr 11 min 10 sec)
Heartbeat CPU 4 instructions: 230000003 cycles: 57505248 heartbeat IPC: 4 cumulative IPC: 4 (Simulation time: 06 hr 11 min 10 sec)
Heartbeat CPU 8 instructions: 230000002 cycles: 57505259 heartbeat IPC: 4 cumulative IPC: 4 (Simulation time: 06 hr 11 min 10 sec)
Heartbeat CPU 13 instructions: 230000001 cycles: 57505263 heartbeat IPC: 4 cumulative IPC: 4 (Simulation time: 06 hr 11 min 10 sec)
Heartbeat CPU 3 instructions: 230000001 cycles: 57505264 heartbeat IPC: 4 cumulative IPC: 4 (Simulation time: 06 hr 11 min 10 sec)
*** Reached end of trace: (7, "traces/canneal_big2.champsimtrace")
*** Reached end of trace: (2, "traces/canneal_big2.champsimtrace")
*** Reached end of trace: (12, "traces/canneal_big2.champsimtrace")
*** Reached end of trace: (9, "traces/canneal_big4.champsimtrace")
*** Reached end of trace: (14, "traces/canneal_big4.champsimtrace")
*** Reached end of trace: (4, "traces/canneal_big4.champsimtrace")
*** Reached end of trace: (8, "traces/canneal_big3.champsimtrace")
*** Reached end of trace: (13, "traces/canneal_big3.champsimtrace")
*** Reached end of trace: (3, "traces/canneal_big3.champsimtrace")
*** Reached end of trace: (7, "traces/canneal_big2.champsimtrace")
*** Reached end of trace: (2, "traces/canneal_big2.champsimtrace")
*** Reached end of trace: (12, "traces/canneal_big2.champsimtrace")
*** Reached end of trace: (9, "traces/canneal_big4.champsimtrace")
*** Reached end of trace: (4, "traces/canneal_big4.champsimtrace")
*** Reached end of trace: (14, "traces/canneal_big4.champsimtrace")
*** Reached end of trace: (8, "traces/canneal_big3.champsimtrace")
*** Reached end of trace: (13, "traces/canneal_big3.champsimtrace")
*** Reached end of trace: (3, "traces/canneal_big3.champsimtrace")
Heartbeat CPU 7 instructions: 240000001 cycles: 60005205 heartbeat IPC: 4 cumulative IPC: 4 (Simulation time: 06 hr 26 min 40 sec)
Heartbeat CPU 2 instructions: 240000001 cycles: 60005211 heartbeat IPC: 4 cumulative IPC: 4 (Simulation time: 06 hr 26 min 40 sec)
Heartbeat CPU 12 instructions: 240000001 cycles: 60005220 heartbeat IPC: 4 cumulative IPC: 4 (Simulation time: 06 hr 26 min 40 sec)
Heartbeat CPU 9 instructions: 240000000 cycles: 60005239 heartbeat IPC: 4 cumulative IPC: 4 (Simulation time: 06 hr 26 min 40 sec)
Heartbeat CPU 14 instructions: 240000001 cycles: 60005247 heartbeat IPC: 4 cumulative IPC: 4 (Simulation time: 06 hr 26 min 40 sec)
Heartbeat CPU 4 instructions: 240000003 cycles: 60005248 heartbeat IPC: 4 cumulative IPC: 4 (Simulation time: 06 hr 26 min 40 sec)
Heartbeat CPU 8 instructions: 240000002 cycles: 60005259 heartbeat IPC: 4 cumulative IPC: 4 (Simulation time: 06 hr 26 min 40 sec)
Heartbeat CPU 13 instructions: 240000001 cycles: 60005263 heartbeat IPC: 4 cumulative IPC: 4 (Simulation time: 06 hr 26 min 40 sec)
Heartbeat CPU 3 instructions: 240000001 cycles: 60005264 heartbeat IPC: 4 cumulative IPC: 4 (Simulation time: 06 hr 26 min 40 sec)
*** Reached end of trace: (0, "traces/canneal_big0.champsimtrace")
Heartbeat CPU 0 instructions: 110000033 cycles: 60124118 heartbeat IPC: 1.046 cumulative IPC: 1.039 (Simulation time: 06 hr 27 min 18 sec)
*** Reached end of trace: (15, "traces/canneal_big0.champsimtrace")
Heartbeat CPU 15 instructions: 110000030 cycles: 60222159 heartbeat IPC: 1.045 cumulative IPC: 1.035 (Simulation time: 06 hr 27 min 54 sec)
*** Reached end of trace: (10, "traces/canneal_big0.champsimtrace")
Heartbeat CPU 10 instructions: 110000033 cycles: 60373388 heartbeat IPC: 1.04 cumulative IPC: 1.03 (Simulation time: 06 hr 28 min 52 sec)
*** Reached end of trace: (5, "traces/canneal_big0.champsimtrace")
Heartbeat CPU 5 instructions: 110000025 cycles: 60971118 heartbeat IPC: 1.017 cumulative IPC: 1.016 (Simulation time: 06 hr 32 min 57 sec)
*** Reached end of trace: (7, "traces/canneal_big2.champsimtrace")
*** Reached end of trace: (2, "traces/canneal_big2.champsimtrace")
*** Reached end of trace: (12, "traces/canneal_big2.champsimtrace")
*** Reached end of trace: (9, "traces/canneal_big4.champsimtrace")
*** Reached end of trace: (4, "traces/canneal_big4.champsimtrace")
*** Reached end of trace: (14, "traces/canneal_big4.champsimtrace")
*** Reached end of trace: (8, "traces/canneal_big3.champsimtrace")
*** Reached end of trace: (13, "traces/canneal_big3.champsimtrace")
*** Reached end of trace: (3, "traces/canneal_big3.champsimtrace")
*** Reached end of trace: (7, "traces/canneal_big2.champsimtrace")
[...]
cpu12->cpu12_ITLB TRANSLATION  ACCESS:          0 HIT:          0 MISS:          0 MSHR_MERGE:          0
cpu12->cpu12_ITLB PREFETCH REQUESTED:          0 ISSUED:          0 USEFUL:          0 USELESS:          0
cpu12->cpu12_ITLB AVERAGE MISS LATENCY: - cycles
cpu12_ITLB COHERENCE INVALIDATIONS:          0
cpu12_DTLB COHERENCE INVALIDATIONS:          0
cpu11->cpu11_STLB TOTAL        ACCESS:    2220737 HIT:    2024507 MISS:     196230 MSHR_MERGE:          0
cpu11->cpu11_STLB LOAD         ACCESS:    2220737 HIT:    2024507 MISS:     196230 MSHR_MERGE:          0
cpu11->cpu11_STLB RFO          ACCESS:          0 HIT:          0 MISS:          0 MSHR_MERGE:          0
cpu11->cpu11_STLB PREFETCH     ACCESS:          0 HIT:          0 MISS:          0 MSHR_MERGE:          0
cpu11->cpu11_STLB WRITE        ACCESS:          0 HIT:          0 MISS:          0 MSHR_MERGE:          0
cpu11->cpu11_STLB TRANSLATION  ACCESS:          0 HIT:          0 MISS:          0 MSHR_MERGE:          0
cpu11->cpu11_STLB PREFETCH REQUESTED:          0 ISSUED:          0 USEFUL:          0 USELESS:          0
cpu11->cpu11_STLB AVERAGE MISS LATENCY: 2175 cycles
cpu11_STLB COHERENCE INVALIDATIONS:          0
cpu11->cpu11_L2C TOTAL        ACCESS:    2352678 HIT:     403087 MISS:    1949591 MSHR_MERGE:          0
cpu11->cpu11_L2C LOAD         ACCESS:    1963839 HIT:     401927 MISS:    1561912 MSHR_MERGE:          0
cpu11->cpu11_L2C RFO          ACCESS:          0 HIT:          0 MISS:          0 MSHR_MERGE:          0
cpu11->cpu11_L2C PREFETCH     ACCESS:          0 HIT:          0 MISS:          0 MSHR_MERGE:          0
cpu11->cpu11_L2C WRITE        ACCESS:          0 HIT:          0 MISS:          0 MSHR_MERGE:          0
cpu11->cpu11_L2C TRANSLATION  ACCESS:     388839 HIT:       1160 MISS:     387679 MSHR_MERGE:          0
cpu11->cpu11_L2C PREFETCH REQUESTED:          0 ISSUED:          0 USEFUL:          0 USELESS:          0
cpu11->cpu11_L2C AVERAGE MISS LATENCY: 1116 cycles
cpu11_L2C COHERENCE INVALIDATIONS:          0
cpu11->cpu11_L1I TOTAL        ACCESS:   34115694 HIT:   31954779 MISS:    2160915 MSHR_MERGE:     197076
cpu11->cpu11_L1I LOAD         ACCESS:   34115694 HIT:   31954779 MISS:    2160915 MSHR_MERGE:     197076
cpu11->cpu11_L1I RFO          ACCESS:          0 HIT:          0 MISS:          0 MSHR_MERGE:          0
cpu11->cpu11_L1I PREFETCH     ACCESS:          0 HIT:          0 MISS:          0 MSHR_MERGE:          0
cpu11->cpu11_L1I WRITE        ACCESS:          0 HIT:          0 MISS:          0 MSHR_MERGE:          0
cpu11->cpu11_L1I TRANSLATION  ACCESS:          0 HIT:          0 MISS:          0 MSHR_MERGE:          0
cpu11->cpu11_L1I PREFETCH REQUESTED:          0 ISSUED:          0 USEFUL:          0 USELESS:          0
cpu11->cpu11_L1I AVERAGE MISS LATENCY: 901.1 cycles
cpu11_L1I COHERENCE INVALIDATIONS:          0
cpu11->cpu11_L1D TOTAL        ACCESS:     392592 HIT:       3753 MISS:     388839 MSHR_MERGE:          0
cpu11->cpu11_L1D LOAD         ACCESS:          0 HIT:          0 MISS:          0 MSHR_MERGE:          0
cpu11->cpu11_L1D RFO          ACCESS:          0 HIT:          0 MISS:          0 MSHR_MERGE:          0
cpu11->cpu11_L1D PREFETCH     ACCESS:          0 HIT:          0 MISS:          0 MSHR_MERGE:          0
cpu11->cpu11_L1D WRITE        ACCESS:          0 HIT:          0 MISS:          0 MSHR_MERGE:          0
cpu11->cpu11_L1D TRANSLATION  ACCESS:     392592 HIT:       3753 MISS:     388839 MSHR_MERGE:          0
cpu11->cpu11_L1D PREFETCH REQUESTED:          0 ISSUED:          0 USEFUL:          0 USELESS:          0
cpu11->cpu11_L1D AVERAGE MISS LATENCY: 1092 cycles
cpu11_L1D COHERENCE INVALIDATIONS:          0
cpu11->cpu11_ITLB TOTAL        ACCESS:   33580978 HIT:   31309255 MISS:    2271723 MSHR_MERGE:      50986
cpu11->cpu11_ITLB LOAD         ACCESS:   33580978 HIT:   31309255 MISS:    2271723 MSHR_MERGE:      50986
cpu11->cpu11_ITLB RFO          ACCESS:          0 HIT:          0 MISS:          0 MSHR_MERGE:          0
cpu11->cpu11_ITLB PREFETCH     ACCESS:          0 HIT:          0 MISS:          0 MSHR_MERGE:          0
cpu11->cpu11_ITLB WRITE        ACCESS:          0 HIT:          0 MISS:          0 MSHR_MERGE:          0
cpu11->cpu11_ITLB TRANSLATION  ACCESS:          0 HIT:          0 MISS:          0 MSHR_MERGE:          0
cpu11->cpu11_ITLB PREFETCH REQUESTED:          0 ISSUED:          0 USEFUL:          0 USELESS:          0
cpu11->cpu11_ITLB AVERAGE MISS LATENCY: 196.3 cycles
cpu11_ITLB COHERENCE INVALIDATIONS:          0
cpu11_DTLB COHERENCE INVALIDATIONS:          0
cpu10->cpu10_STLB TOTAL        ACCESS:     516417 HIT:     516417 MISS:          0 MSHR_MERGE:          0
cpu10->cpu10_STLB LOAD         ACCESS:     516417 HIT:     516417 MISS:          0 MSHR_MERGE:          0
cpu10->cpu10_STLB RFO          ACCESS:          0 HIT:          0 MISS:          0 MSHR_MERGE:          0
cpu10->cpu10_STLB PREFETCH     ACCESS:          0 HIT:          0 MISS:          0 MSHR_MERGE:          0
cpu10->cpu10_STLB WRITE        ACCESS:          0 HIT:          0 MISS:          0 MSHR_MERGE:          0
cpu10->cpu10_STLB TRANSLATION  ACCESS:          0 HIT:          0 MISS:          0 MSHR_MERGE:          0
cpu10->cpu10_STLB PREFETCH REQUESTED:          0 ISSUED:          0 USEFUL:          0 USELESS:          0
cpu10->cpu10_STLB AVERAGE MISS LATENCY: - cycles
cpu10_STLB COHERENCE INVALIDATIONS:          0
cpu10->cpu10_L2C TOTAL        ACCESS:   16551081 HIT:    8029276 MISS:    8521805 MSHR_MERGE:          0
cpu10->cpu10_L2C LOAD         ACCESS:    2610405 HIT:     879604 MISS:    1730801 MSHR_MERGE:          0
cpu10->cpu10_L2C RFO          ACCESS:    6920122 HIT:     129118 MISS:    6791004 MSHR_MERGE:          0
cpu10->cpu10_L2C PREFETCH     ACCESS:          0 HIT:          0 MISS:          0 MSHR_MERGE:          0
cpu10->cpu10_L2C WRITE        ACCESS:    7020554 HIT:    7020554 MISS:          0 MSHR_MERGE:          0
cpu10->cpu10_L2C TRANSLATION  ACCESS:          0 HIT:          0 MISS:          0 MSHR_MERGE:          0
cpu10->cpu10_L2C PREFETCH REQUESTED:          0 ISSUED:          0 USEFUL:          0 USELESS:          0
cpu10->cpu10_L2C AVERAGE MISS LATENCY: 1022 cycles
cpu10_L2C COHERENCE INVALIDATIONS:          0
cpu10->cpu10_L1I TOTAL        ACCESS:  231938078 HIT:  231437301 MISS:     500777 MSHR_MERGE:     126245
cpu10->cpu10_L1I LOAD         ACCESS:  231938078 HIT:  231437301 MISS:     500777 MSHR_MERGE:     126245
cpu10->cpu10_L1I RFO          ACCESS:          0 HIT:          0 MISS:          0 MSHR_MERGE:          0
cpu10->cpu10_L1I PREFETCH     ACCESS:          0 HIT:          0 MISS:          0 MSHR_MERGE:          0
cpu10->cpu10_L1I WRITE        ACCESS:          0 HIT:          0 MISS:          0 MSHR_MERGE:          0
cpu10->cpu10_L1I TRANSLATION  ACCESS:          0 HIT:          0 MISS:          0 MSHR_MERGE:          0
cpu10->cpu10_L1I PREFETCH REQUESTED:          0 ISSUED:          0 USEFUL:          0 USELESS:          0
cpu10->cpu10_L1I AVERAGE MISS LATENCY: 662.9 cycles
cpu10_L1I COHERENCE INVALIDATIONS:          0
cpu10->cpu10_L1D TOTAL        ACCESS:  249239337 HIT:  196722410 MISS:   52516927 MSHR_MERGE:   43358069
cpu10->cpu10_L1D LOAD         ACCESS:   26659006 HIT:   23219215 MISS:    3439791 MSHR_MERGE:    1203918
cpu10->cpu10_L1D RFO          ACCESS:          0 HIT:          0 MISS:          0 MSHR_MERGE:          0
cpu10->cpu10_L1D PREFETCH     ACCESS:          0 HIT:          0 MISS:          0 MSHR_MERGE:          0
cpu10->cpu10_L1D WRITE        ACCESS:  222580331 HIT:  173503195 MISS:   49077136 MSHR_MERGE:   42154151
cpu10->cpu10_L1D TRANSLATION  ACCESS:          0 HIT:          0 MISS:          0 MSHR_MERGE:          0
cpu10->cpu10_L1D PREFETCH REQUESTED:          0 ISSUED:          0 USEFUL:          0 USELESS:          0
cpu10->cpu10_L1D AVERAGE MISS LATENCY: 931.8 cycles
cpu10_L1D COHERENCE INVALIDATIONS:          0
cpu10->cpu10_ITLB TOTAL        ACCESS:  193100169 HIT:  193023655 MISS:      76514 MSHR_MERGE:      29318
cpu10->cpu10_ITLB LOAD         ACCESS:  193100169 HIT:  193023655 MISS:      76514 MSHR_MERGE:      29318
cpu10->cpu10_ITLB RFO          ACCESS:          0 HIT:          0 MISS:          0 MSHR_MERGE:          0
cpu10->cpu10_ITLB PREFETCH     ACCESS:          0 HIT:          0 MISS:          0 MSHR_MERGE:          0
cpu10->cpu10_ITLB WRITE        ACCESS:          0 HIT:          0 MISS:          0 MSHR_MERGE:          0
cpu10->cpu10_ITLB TRANSLATION  ACCESS:          0 HIT:          0 MISS:          0 MSHR_MERGE:          0
cpu10->cpu10_ITLB PREFETCH REQUESTED:          0 ISSUED:          0 USEFUL:          0 USELESS:          0
cpu10->cpu10_ITLB AVERAGE MISS LATENCY: 4.003 cycles
cpu10_ITLB COHERENCE INVALIDATIONS:          0
cpu10->cpu10_DTLB TOTAL        ACCESS:  208441318 HIT:  207822647 MISS:     618671 MSHR_MERGE:     149450
cpu10->cpu10_DTLB LOAD         ACCESS:  208441318 HIT:  207822647 MISS:     618671 MSHR_MERGE:     149450
cpu10->cpu10_DTLB RFO          ACCESS:          0 HIT:          0 MISS:          0 MSHR_MERGE:          0
cpu10->cpu10_DTLB PREFETCH     ACCESS:          0 HIT:          0 MISS:          0 MSHR_MERGE:          0
cpu10->cpu10_DTLB WRITE        ACCESS:          0 HIT:          0 MISS:          0 MSHR_MERGE:          0
cpu10->cpu10_DTLB TRANSLATION  ACCESS:          0 HIT:          0 MISS:          0 MSHR_MERGE:          0
cpu10->cpu10_DTLB PREFETCH REQUESTED:          0 ISSUED:          0 USEFUL:          0 USELESS:          0
cpu10->cpu10_DTLB AVERAGE MISS LATENCY: 4 cycles
cpu10_DTLB COHERENCE INVALIDATIONS:          0
cpu0->cpu0_STLB TOTAL        ACCESS:     522509 HIT:     522509 MISS:          0 MSHR_MERGE:          0
cpu0->cpu0_STLB LOAD         ACCESS:     522509 HIT:     522509 MISS:          0 MSHR_MERGE:          0
cpu0->cpu0_STLB RFO          ACCESS:          0 HIT:          0 MISS:          0 MSHR_MERGE:          0
cpu0->cpu0_STLB PREFETCH     ACCESS:          0 HIT:          0 MISS:          0 MSHR_MERGE:          0
cpu0->cpu0_STLB WRITE        ACCESS:          0 HIT:          0 MISS:          0 MSHR_MERGE:          0
cpu0->cpu0_STLB TRANSLATION  ACCESS:          0 HIT:          0 MISS:          0 MSHR_MERGE:          0
cpu0->cpu0_STLB PREFETCH REQUESTED:          0 ISSUED:          0 USEFUL:          0 USELESS:          0
cpu0->cpu0_STLB AVERAGE MISS LATENCY: - cycles
cpu0_STLB COHERENCE INVALIDATIONS:          0
cpu0->cpu0_L2C TOTAL        ACCESS:   16738420 HIT:    8122001 MISS:    8616419 MSHR_MERGE:          0
cpu0->cpu0_L2C LOAD         ACCESS:    2639188 HIT:     890337 MISS:    1748851 MSHR_MERGE:          0
cpu0->cpu0_L2C RFO          ACCESS:    6998814 HIT:     131525 MISS:    6867289 MSHR_MERGE:          0
cpu0->cpu0_L2C PREFETCH     ACCESS:          0 HIT:          0 MISS:          0 MSHR_MERGE:          0
cpu0->cpu0_L2C WRITE        ACCESS:    7100418 HIT:    7100139 MISS:        279 MSHR_MERGE:          0
cpu0->cpu0_L2C TRANSLATION  ACCESS:          0 HIT:          0 MISS:          0 MSHR_MERGE:          0
cpu0->cpu0_L2C PREFETCH REQUESTED:          0 ISSUED:          0 USEFUL:          0 USELESS:          0
cpu0->cpu0_L2C AVERAGE MISS LATENCY: 1010 cycles
cpu0_L2C COHERENCE INVALIDATIONS:          0
cpu0->cpu0_L1I TOTAL        ACCESS:  234520448 HIT:  234010266 MISS:     510182 MSHR_MERGE:     131566
cpu0->cpu0_L1I LOAD         ACCESS:  234520448 HIT:  234010266 MISS:     510182 MSHR_MERGE:     131566
cpu0->cpu0_L1I RFO          ACCESS:          0 HIT:          0 MISS:          0 MSHR_MERGE:          0
cpu0->cpu0_L1I PREFETCH     ACCESS:          0 HIT:          0 MISS:          0 MSHR_MERGE:          0
cpu0->cpu0_L1I WRITE        ACCESS:          0 HIT:          0 MISS:          0 MSHR_MERGE:          0
cpu0->cpu0_L1I TRANSLATION  ACCESS:          0 HIT:          0 MISS:          0 MSHR_MERGE:          0
cpu0->cpu0_L1I PREFETCH REQUESTED:          0 ISSUED:          0 USEFUL:          0 USELESS:          0
cpu0->cpu0_L1I AVERAGE MISS LATENCY: 571.6 cycles
cpu0_L1I COHERENCE INVALIDATIONS:          0
cpu0->cpu0_L1D TOTAL        ACCESS:  252385585 HIT:  199412368 MISS:   52973217 MSHR_MERGE:   43710989
cpu0->cpu0_L1D LOAD         ACCESS:   26984291 HIT:   23580202 MISS:    3404089 MSHR_MERGE:    1143517
cpu0->cpu0_L1D RFO          ACCESS:          0 HIT:          0 MISS:          0 MSHR_MERGE:          0
cpu0->cpu0_L1D PREFETCH     ACCESS:          0 HIT:          0 MISS:          0 MSHR_MERGE:          0
cpu0->cpu0_L1D WRITE        ACCESS:  225401294 HIT:  175832166 MISS:   49569128 MSHR_MERGE:   42567472
cpu0->cpu0_L1D TRANSLATION  ACCESS:          0 HIT:          0 MISS:          0 MSHR_MERGE:          0
cpu0->cpu0_L1D PREFETCH REQUESTED:          0 ISSUED:          0 USEFUL:          0 USELESS:          0
cpu0->cpu0_L1D AVERAGE MISS LATENCY: 924.7 cycles
cpu0_L1D COHERENCE INVALIDATIONS:          0
cpu0->cpu0_ITLB TOTAL        ACCESS:  195255049 HIT:  195176647 MISS:      78402 MSHR_MERGE:      30692
cpu0->cpu0_ITLB LOAD         ACCESS:  195255049 HIT:  195176647 MISS:      78402 MSHR_MERGE:      30692
cpu0->cpu0_ITLB RFO          ACCESS:          0 HIT:          0 MISS:          0 MSHR_MERGE:          0
cpu0->cpu0_ITLB PREFETCH     ACCESS:          0 HIT:          0 MISS:          0 MSHR_MERGE:          0
cpu0->cpu0_ITLB WRITE        ACCESS:          0 HIT:          0 MISS:          0 MSHR_MERGE:          0
cpu0->cpu0_ITLB TRANSLATION  ACCESS:          0 HIT:          0 MISS:          0 MSHR_MERGE:          0
cpu0->cpu0_ITLB PREFETCH REQUESTED:          0 ISSUED:          0 USEFUL:          0 USELESS:          0
cpu0->cpu0_ITLB AVERAGE MISS LATENCY: 4.003 cycles
cpu0_ITLB COHERENCE INVALIDATIONS:          0
cpu0->cpu0_DTLB TOTAL        ACCESS:  211069603 HIT:  210445945 MISS:     623658 MSHR_MERGE:     148859
cpu0->cpu0_DTLB LOAD         ACCESS:  211069603 HIT:  210445945 MISS:     623658 MSHR_MERGE:     148859
cpu0->cpu0_DTLB RFO          ACCESS:          0 HIT:          0 MISS:          0 MSHR_MERGE:          0
cpu0->cpu0_DTLB PREFETCH     ACCESS:          0 HIT:          0 MISS:          0 MSHR_MERGE:          0
cpu0->cpu0_DTLB WRITE        ACCESS:          0 HIT:          0 MISS:          0 MSHR_MERGE:          0
cpu0->cpu0_DTLB TRANSLATION  ACCESS:          0 HIT:          0 MISS:          0 MSHR_MERGE:          0
cpu0->cpu0_DTLB PREFETCH REQUESTED:          0 ISSUED:          0 USEFUL:          0 USELESS:          0
cpu0->cpu0_DTLB AVERAGE MISS LATENCY: 4 cycles
cpu0_DTLB COHERENCE INVALIDATIONS:          0
cpu0->LLC TOTAL        ACCESS:   15557431 HIT:    1520770 MISS:   14036661 MSHR_MERGE:          0
cpu0->LLC LOAD         ACCESS:    1748851 HIT:    1189247 MISS:     559604 MSHR_MERGE:          0
cpu0->LLC RFO          ACCESS:    6867288 HIT:     141803 MISS:    6725485 MSHR_MERGE:          0
cpu0->LLC PREFETCH     ACCESS:          0 HIT:          0 MISS:          0 MSHR_MERGE:          0
cpu0->LLC WRITE        ACCESS:    6941292 HIT:     189720 MISS:    6751572 MSHR_MERGE:          0
cpu0->LLC TRANSLATION  ACCESS:          0 HIT:          0 MISS:          0 MSHR_MERGE:          0
cpu0->LLC PREFETCH REQUESTED:          0 ISSUED:          0 USEFUL:          0 USELESS:          0
cpu0->LLC AVERAGE MISS LATENCY: 1501 cycles
cpu1->LLC TOTAL        ACCESS:    1949692 HIT:     113531 MISS:    1836161 MSHR_MERGE:          0
cpu1->LLC LOAD         ACCESS:    1560853 HIT:      86474 MISS:    1474379 MSHR_MERGE:          0
cpu1->LLC RFO          ACCESS:          0 HIT:          0 MISS:          0 MSHR_MERGE:          0
cpu1->LLC PREFETCH     ACCESS:          0 HIT:          0 MISS:          0 MSHR_MERGE:          0
cpu1->LLC WRITE        ACCESS:          0 HIT:          0 MISS:          0 MSHR_MERGE:          0
cpu1->LLC TRANSLATION  ACCESS:     388839 HIT:      27057 MISS:     361782 MSHR_MERGE:          0
cpu1->LLC PREFETCH REQUESTED:          0 ISSUED:          0 USEFUL:          0 USELESS:          0
cpu1->LLC AVERAGE MISS LATENCY: 1.147e+04 cycles
cpu5->LLC TOTAL        ACCESS:   15276936 HIT:    1479601 MISS:   13797335 MSHR_MERGE:          0
cpu5->LLC LOAD         ACCESS:    1718839 HIT:    1174638 MISS:     544201 MSHR_MERGE:          0
cpu5->LLC RFO          ACCESS:    6743009 HIT:     130972 MISS:    6612037 MSHR_MERGE:          0
cpu5->LLC PREFETCH     ACCESS:          0 HIT:          0 MISS:          0 MSHR_MERGE:          0
cpu5->LLC WRITE        ACCESS:    6815088 HIT:     173991 MISS:    6641097 MSHR_MERGE:          0
cpu5->LLC TRANSLATION  ACCESS:          0 HIT:          0 MISS:          0 MSHR_MERGE:          0
cpu5->LLC PREFETCH REQUESTED:          0 ISSUED:          0 USEFUL:          0 USELESS:          0
cpu5->LLC AVERAGE MISS LATENCY: 1527 cycles
cpu6->LLC TOTAL        ACCESS:    1944661 HIT:     113581 MISS:    1831080 MSHR_MERGE:          0
cpu6->LLC LOAD         ACCESS:    1556767 HIT:      87985 MISS:    1468782 MSHR_MERGE:          0
cpu6->LLC RFO          ACCESS:          0 HIT:          0 MISS:          0 MSHR_MERGE:          0
cpu6->LLC PREFETCH     ACCESS:          0 HIT:          0 MISS:          0 MSHR_MERGE:          0
cpu6->LLC WRITE        ACCESS:          0 HIT:          0 MISS:          0 MSHR_MERGE:          0
cpu6->LLC TRANSLATION  ACCESS:     387894 HIT:      25596 MISS:     362298 MSHR_MERGE:          0
cpu6->LLC PREFETCH REQUESTED:          0 ISSUED:          0 USEFUL:          0 USELESS:          0
cpu6->LLC AVERAGE MISS LATENCY: 1.15e+04 cycles
cpu10->LLC TOTAL        ACCESS:   15385387 HIT:    1464180 MISS:   13921207 MSHR_MERGE:          0
cpu10->LLC LOAD         ACCESS:    1730801 HIT:    1173525 MISS:     557276 MSHR_MERGE:          0
cpu10->LLC RFO          ACCESS:    6791003 HIT:     125331 MISS:    6665672 MSHR_MERGE:          0
cpu10->LLC PREFETCH     ACCESS:          0 HIT:          0 MISS:          0 MSHR_MERGE:          0
cpu10->LLC WRITE        ACCESS:    6863583 HIT:     165324 MISS:    6698259 MSHR_MERGE:          0
cpu10->LLC TRANSLATION  ACCESS:          0 HIT:          0 MISS:          0 MSHR_MERGE:          0
cpu10->LLC PREFETCH REQUESTED:          0 ISSUED:          0 USEFUL:          0 USELESS:          0
cpu10->LLC AVERAGE MISS LATENCY: 1513 cycles
cpu11->LLC TOTAL        ACCESS:    1949591 HIT:     113829 MISS:    1835762 MSHR_MERGE:          0
cpu11->LLC LOAD         ACCESS:    1561912 HIT:      86758 MISS:    1475154 MSHR_MERGE:          0
cpu11->LLC RFO          ACCESS:          0 HIT:          0 MISS:          0 MSHR_MERGE:          0
cpu11->LLC PREFETCH     ACCESS:          0 HIT:          0 MISS:          0 MSHR_MERGE:          0
cpu11->LLC WRITE        ACCESS:          0 HIT:          0 MISS:          0 MSHR_MERGE:          0
cpu11->LLC TRANSLATION  ACCESS:     387679 HIT:      27071 MISS:     360608 MSHR_MERGE:          0
cpu11->LLC PREFETCH REQUESTED:          0 ISSUED:          0 USEFUL:          0 USELESS:          0
cpu11->LLC AVERAGE MISS LATENCY: 1.148e+04 cycles
cpu15->LLC TOTAL        ACCESS:   15443031 HIT:    1420771 MISS:   14022260 MSHR_MERGE:          0
cpu15->LLC LOAD         ACCESS:    1734126 HIT:    1164820 MISS:     569306 MSHR_MERGE:          0
cpu15->LLC RFO          ACCESS:    6817978 HIT:     109972 MISS:    6708006 MSHR_MERGE:          0
cpu15->LLC PREFETCH     ACCESS:          0 HIT:          0 MISS:          0 MSHR_MERGE:          0
cpu15->LLC WRITE        ACCESS:    6890927 HIT:     145979 MISS:    6744948 MSHR_MERGE:          0
cpu15->LLC TRANSLATION  ACCESS:          0 HIT:          0 MISS:          0 MSHR_MERGE:          0
cpu15->LLC PREFETCH REQUESTED:          0 ISSUED:          0 USEFUL:          0 USELESS:          0
cpu15->LLC AVERAGE MISS LATENCY: 1502 cycles
LLC COHERENCE INVALIDATIONS:          0

DRAM Statistics

Channel 0 RQ ROW_BUFFER_HIT:    2340829
  ROW_BUFFER_MISS:   32103749
  AVG DBUS CONGESTED CYCLE: 7.233
Channel 0 WQ ROW_BUFFER_HIT:    3299140
  ROW_BUFFER_MISS:   23536010
  FULL:    1921044
Channel 0 REFRESHES ISSUED:     112342
