[VMEM] WARNING: physical memory size is smaller than virtual memory size.

*** ChampSim Multicore Out-of-Order Simulator ***
Warmup Instructions: 50000000
Simulation Instructions: 100000000
Number of CPUs: 16
Page size: 4096

Off-chip DRAM Size: 16 GiB Channels: 1 Width: 64-bit Data Rate: 3205 MT/s
*** Reached end of trace: (7, "traces/canneal_big2.champsimtrace")
*** Reached end of trace: (2, "traces/canneal_big2.champsimtrace")
*** Reached end of trace: (12, "traces/canneal_big2.champsimtrace")
*** Reached end of trace: (9, "traces/canneal_big4.champsimtrace")
*** Reached end of trace: (14, "traces/canneal_big4.champsimtrace")
*** Reached end of trace: (4, "traces/canneal_big4.champsimtrace")
*** Reached end of trace: (8, "traces/canneal_big3.champsimtrace")
*** Reached end of trace: (13, "traces/canneal_big3.champsimtrace")
*** Reached end of trace: (3, "traces/canneal_big3.champsimtrace")
*** Reached end of trace: (5, "traces/canneal_big0.champsimtrace")
*** Reached end of trace: (10, "traces/canneal_big0.champsimtrace")
*** Reached end of trace: (0, "traces/canneal_big0.champsimtrace")
*** Reached end of trace: (15, "traces/canneal_big0.champsimtrace")
*** Reached end of trace: (7, "traces/canneal_big2.champsimtrace")
*** Reached end of trace: (2, "traces/canneal_big2.champsimtrace")
*** Reached end of trace: (12, "traces/canneal_big2.champsimtrace")
*** Reached end of trace: (9, "traces/canneal_big4.champsimtrace")
*** Reached end of trace: (14, "traces/canneal_big4.champsimtrace")
*** Reached end of trace: (4, "traces/canneal_big4.champsimtrace")
*** Reached end of trace: (8, "traces/canneal_big3.champsimtrace")
*** Reached end of trace: (13, "traces/canneal_big3.champsimtrace")
*** Reached end of trace: (3, "traces/canneal_big3.champsimtrace")
Heartbeat CPU 7 instructions: 10000001 cycles: 2505205 heartbeat IPC: 3.992 cumulative IPC: 3.992 (Simulation time: 00 hr 18 min 05 sec)
Heartbeat CPU 2 instructions: 10000001 cycles: 2505211 heartbeat IPC: 3.992 cumulative IPC: 3.992 (Simulation time: 00 hr 18 min 05 sec)
Heartbeat CPU 12 instructions: 10000001 cycles: 2505220 heartbeat IPC: 3.992 cumulative IPC: 3.992 (Simulation time: 00 hr 18 min 05 sec)
Heartbeat CPU 9 instructions: 10000000 cycles: 2505239 heartbeat IPC: 3.992 cumulative IPC: 3.992 (Simulation time: 00 hr 18 min 05 sec)
Heartbeat CPU 14 instructions: 10000001 cycles: 2505247 heartbeat IPC: 3.992 cumulative IPC: 3.992 (Simulation time: 00 hr 18 min 05 sec)
Heartbeat CPU 4 instructions: 10000003 cycles: 2505248 heartbeat IPC: 3.992 cumulative IPC: 3.992 (Simulation time: 00 hr 18 min 05 sec)
Heartbeat CPU 8 instructions: 10000002 cycles: 2505259 heartbeat IPC: 3.992 cumulative IPC: 3.992 (Simulation time: 00 hr 18 min 05 sec)
Heartbeat CPU 13 instructions: 10000001 cycles: 2505263 heartbeat IPC: 3.992 cumulative IPC: 3.992 (Simulation time: 00 hr 18 min 05 sec)
Heartbeat CPU 3 instructions: 10000001 cycles: 2505264 heartbeat IPC: 3.992 cumulative IPC: 3.992 (Simulation time: 00 hr 18 min 05 sec)
*** Reached end of trace: (7, "traces/canneal_big2.champsimtrace")
*** Reached end of trace: (2, "traces/canneal_big2.champsimtrace")
*** Reached end of trace: (12, "traces/canneal_big2.champsimtrace")
*** Reached end of trace: (9, "traces/canneal_big4.champsimtrace")
*** Reached end of trace: (4, "traces/canneal_big4.champsimtrace")
*** Reached end of trace: (14, "traces/canneal_big4.champsimtrace")
*** Reached end of trace: (8, "traces/canneal_big3.champsimtrace")
*** Reached end of trace: (13, "traces/canneal_big3.champsimtrace")
*** Reached end of trace: (3, "traces/canneal_big3.champsimtrace")
*** Reached end of trace: (10, "traces/canneal_big0.champsimtrace")
*** Reached end of trace: (0, "traces/canneal_big0.champsimtrace")
Heartbeat CPU 10 instructions: 10000003 cycles: 4084698 heartbeat IPC: 2.448 cumulative IPC: 2.448 (Simulation time: 00 hr 29 min 58 sec)
Heartbeat CPU 0 instructions: 10000003 cycles: 4084738 heartbeat IPC: 2.448 cumulative IPC: 2.448 (Simulation time: 00 hr 29 min 58 sec)
*** Reached end of trace: (15, "traces/canneal_big0.champsimtrace")
Heartbeat CPU 15 instructions: 10000003 cycles: 4084869 heartbeat IPC: 2.448 cumulative IPC: 2.448 (Simulation time: 00 hr 29 min 58 sec)
*** Reached end of trace: (5, "traces/canneal_big0.champsimtrace")
Heartbeat CPU 5 instructions: 10000003 cycles: 4087228 heartbeat IPC: 2.447 cumulative IPC: 2.447 (Simulation time: 00 hr 29 min 59 sec)
*** Reached end of trace: (7, "traces/canneal_big2.champsimtrace")
*** Reached end of trace: (2, "traces/canneal_big2.champsimtrace")
*** Reached end of trace: (12, "traces/canneal_big2.champsimtrace")
*** Reached end of trace: (9, "traces/canneal_big4.champsimtrace")
*** Reached end of trace: (14, "traces/canneal_big4.champsimtrace")
*** Reached end of trace: (4, "traces/canneal_big4.champsimtrace")
*** Reached end of trace: (8, "traces/canneal_big3.champsimtrace")
*** Reached end of trace: (13, "traces/canneal_big3.champsimtrace")
*** Reached end of trace: (3, "traces/canneal_big3.champsimtrace")
Heartbeat CPU 7 instructions: 20000001 cycles: 5005205 heartbeat IPC: 4 cumulative IPC: 3.996 (Simulation time: 00 hr 37 min 30 sec)
Heartbeat CPU 2 instructions: 20000001 cycles: 5005211 heartbeat IPC: 4 cumulative IPC: 3.996 (Simulation time: 00 hr 37 min 30 sec)
Heartbeat CPU 12 instructions: 20000001 cycles: 5005220 heartbeat IPC: 4 cumulative IPC: 3.996 (Simulation time: 00 hr 37 min 30 sec)
Heartbeat CPU 9 instructions: 20000000 cycles: 5005239 heartbeat IPC: 4 cumulative IPC: 3.996 (Simulation time: 00 hr 37 min 30 sec)
Heartbeat CPU 14 instructions: 20000001 cycles: 5005247 heartbeat IPC: 4 cumulative IPC: 3.996 (Simulation time: 00 hr 37 min 30 sec)
Heartbeat CPU 4 instructions: 20000003 cycles: 5005248 heartbeat IPC: 4 cumulative IPC: 3.996 (Simulation time: 00 hr 37 min 30 sec)
Heartbeat CPU 8 instructions: 20000002 cycles: 5005259 heartbeat IPC: 4 cumulative IPC: 3.996 (Simulation time: 00 hr 37 min 30 sec)
Heartbeat CPU 13 instructions: 20000001 cycles: 5005263 heartbeat IPC: 4 cumulative IPC: 3.996 (Simulation time: 00 hr 37 min 30 sec)
Heartbeat CPU 3 instructions: 20000001 cycles: 5005264 heartbeat IPC: 4 cumulative IPC: 3.996 (Simulation time: 00 hr 37 min 30 sec)
*** Reached end of trace: (11, "traces/canneal_big1.champsimtrace")
*** Reached end of trace: (1, "traces/canneal_big1.champsimtrace")
*** Reached end of trace: (6, "traces/canneal_big1.champsimtrace")
*** Reached end of trace: (0, "traces/canneal_big0.champsimtrace")
*** Reached end of trace: (10, "traces/canneal_big0.champsimtrace")
*** Reached end of trace: (15, "traces/canneal_big0.champsimtrace")
*** Reached end of trace: (5, "traces/canneal_big0.champsimtrace")
*** Reached end of trace: (7, "traces/canneal_big2.champsimtrace")
*** Reached end of trace: (2, "traces/canneal_big2.champsimtrace")
*** Reached end of trace: (12, "traces/canneal_big2.champsimtrace")
*** Reached end of trace: (9, "traces/canneal_big4.champsimtrace")
*** Reached end of trace: (14, "traces/canneal_big4.champsimtrace")
*** Reached end of trace: (4, "traces/canneal_big4.champsimtrace")
*** Reached end of trace: (8, "traces/canneal_big3.champsimtrace")
*** Reached end of trace: (13, "traces/canneal_big3.champsimtrace")
*** Reached end of trace: (3, "traces/canneal_big3.champsimtrace")
*** Reached end of trace: (7, "traces/canneal_big2.champsimtrace")
*** Reached end of trace: (2, "traces/canneal_big2.champsimtrace")
*** Reached end of trace: (12, "traces/canneal_big2.champsimtrace")
*** Reached end of trace: (9, "traces/canneal_big4.champsimtrace")
*** Reached end of trace: (4, "traces/canneal_big4.champsimtrace")
*** Reached end of trace: (14, "traces/canneal_big4.champsimtrace")
*** Reached end of trace: (8, "traces/canneal_big3.champsimtrace")
*** Reached end of trace: (13, "traces/canneal_big3.champsimtrace")
*** Reached end of trace: (3, "traces/canneal_big3.champsimtrace")
Heartbeat CPU 7 instructions: 30000001 cycles: 7505205 heartbeat IPC: 4 cumulative IPC: 3.997 (Simulation time: 00 hr 57 min 09 sec)
Heartbeat CPU 2 instructions: 30000001 cycles: 7505211 heartbeat IPC: 4 cumulative IPC: 3.997 (Simulation time: 00 hr 57 min 09 sec)
Heartbeat CPU 12 instructions: 30000001 cycles: 7505220 heartbeat IPC: 4 cumulative IPC: 3.997 (Simulation time: 00 hr 57 min 09 sec)
Heartbeat CPU 9 instructions: 30000000 cycles: 7505239 heartbeat IPC: 4 cumulative IPC: 3.997 (Simulation time: 00 hr 57 min 09 sec)
Heartbeat CPU 14 instructions: 30000001 cycles: 7505247 heartbeat IPC: 4 cumulative IPC: 3.997 (Simulation time: 00 hr 57 min 09 sec)
Heartbeat CPU 4 instructions: 30000003 cycles: 7505248 heartbeat IPC: 4 cumulative IPC: 3.997 (Simulation time: 00 hr 57 min 09 sec)
Heartbeat CPU 8 instructions: 30000002 cycles: 7505259 heartbeat IPC: 4 cumulative IPC: 3.997 (Simulation time: 00 hr 57 min 09 sec)
Heartbeat CPU 13 instructions: 30000001 cycles: 7505263 heartbeat IPC: 4 cumulative IPC: 3.997 (Simulation time: 00 hr 57 min 09 sec)
Heartbeat CPU 3 instructions: 30000001 cycles: 7505264 heartbeat IPC: 4 cumulative IPC: 3.997 (Simulation time: 00 hr 57 min 09 sec)
*** Reached end of trace: (11, "traces/canneal_big1.champsimtrace")
Heartbeat CPU 11 instructions: 10000002 cycles: 7857558 heartbeat IPC: 1.273 cumulative IPC: 1.273 (Simulation time: 00 hr 59 min 22 sec)
*** Reached end of trace: (1, "traces/canneal_big1.champsimtrace")
Heartbeat CPU 1 instructions: 10000002 cycles: 7864731 heartbeat IPC: 1.271 cumulative IPC: 1.271 (Simulation time: 00 hr 59 min 26 sec)
*** Reached end of trace: (6, "traces/canneal_big1.champsimtrace")
Heartbeat CPU 6 instructions: 10000002 cycles: 7895309 heartbeat IPC: 1.267 cumulative IPC: 1.267 (Simulation time: 00 hr 59 min 36 sec)
*** Reached end of trace: (0, "traces/canneal_big0.champsimtrace")
*** Reached end of trace: (10, "traces/canneal_big0.champsimtrace")
*** Reached end of trace: (15, "traces/canneal_big0.champsimtrace")
Heartbeat CPU 0 instructions: 20000006 cycles: 7931007 heartbeat IPC: 2.6 cumulative IPC: 2.522 (Simulation time: 00 hr 59 min 50 sec)
Heartbeat CPU 10 instructions: 20000006 cycles: 7931067 heartbeat IPC: 2.6 cumulative IPC: 2.522 (Simulation time: 00 hr 59 min 50 sec)
Heartbeat CPU 15 instructions: 20000006 cycles: 7931138 heartbeat IPC: 2.6 cumulative IPC: 2.522 (Simulation time: 00 hr 59 min 50 sec)
*** Reached end of trace: (5, "traces/canneal_big0.champsimtrace")
Heartbeat CPU 5 instructions: 20000006 cycles: 7942537 heartbeat IPC: 2.594 cumulative IPC: 2.518 (Simulation time: 00 hr 59 min 55 sec)
*** Reached end of trace: (7, "traces/canneal_big2.champsimtrace")
*** Reached end of trace: (2, "traces/canneal_big2.champsimtrace")
*** Reached end of trace: (12, "traces/canneal_big2.champsimtrace")
*** Reached end of trace: (9, "traces/canneal_big4.champsimtrace")
*** Reached end of trace: (4, "traces/canneal_big4.champsimtrace")
*** Reached end of trace: (14, "traces/canneal_big4.champsimtrace")
*** Reached end of trace: (8, "traces/canneal_big3.champsimtrace")
*** Reached end of trace: (13, "traces/canneal_big3.champsimtrace")
*** Reached end of trace: (3, "traces/canneal_big3.champsimtrace")
*** Reached end of trace: (0, "traces/canneal_big0.champsimtrace")
*** Reached end of trace: (10, "traces/canneal_big0.champsimtrace")
*** Reached end of trace: (15, "traces/canneal_big0.champsimtrace")
*** Reached end of trace: (5, "traces/canneal_big0.champsimtrace")
*** Reached end of trace: (7, "traces/canneal_big2.champsimtrace")
*** Reached end of trace: (2, "traces/canneal_big2.champsimtrace")
*** Reached end of trace: (12, "traces/canneal_big2.champsimtrace")
*** Reached end of trace: (9, "traces/canneal_big4.champsimtrace")
*** Reached end of trace: (4, "traces/canneal_big4.champsimtrace")
*** Reached end of trace: (14, "traces/canneal_big4.champsimtrace")
*** Reached end of trace: (8, "traces/canneal_big3.champsimtrace")
*** Reached end of trace: (13, "traces/canneal_big3.champsimtrace")
*** Reached end of trace: (3, "traces/canneal_big3.champsimtrace")
Heartbeat CPU 7 instructions: 40000001 cycles: 10005205 heartbeat IPC: 4 cumulative IPC: 3.998 (Simulation time: 01 hr 13 min 02 sec)
Heartbeat CPU 2 instructions: 40000001 cycles: 10005211 heartbeat IPC: 4 cumulative IPC: 3.998 (Simulation time: 01 hr 13 min 02 sec)
Heartbeat CPU 12 instructions: 40000001 cycles: 10005220 heartbeat IPC: 4 cumulative IPC: 3.998 (Simulation time: 01 hr 13 min 02 sec)
Heartbeat CPU 9 instructions: 40000000 cycles: 10005239 heartbeat IPC: 4 cumulative IPC: 3.998 (Simulation time: 01 hr 13 min 02 sec)
Heartbeat CPU 14 instructions: 40000001 cycles: 10005247 heartbeat IPC: 4 cumulative IPC: 3.998 (Simulation time: 01 hr 13 min 02 sec)
Heartbeat CPU 4 instructions: 40000003 cycles: 10005248 heartbeat IPC: 4 cumulative IPC: 3.998 (Simulation time: 01 hr 13 min 02 sec)
Heartbeat CPU 8 instructions: 40000002 cycles: 10005259 heartbeat IPC: 4 cumulative IPC: 3.998 (Simulation time: 01 hr 13 min 02 sec)
Heartbeat CPU 13 instructions: 40000001 cycles: 10005263 heartbeat IPC: 4 cumulative IPC: 3.998 (Simulation time: 01 hr 13 min 02 sec)
Heartbeat CPU 3 instructions: 40000001 cycles: 10005264 heartbeat IPC: 4 cumulative IPC: 3.998 (Simulation time: 01 hr 13 min 02 sec)
*** Reached end of trace: (11, "traces/canneal_big1.champsimtrace")
*** Reached end of trace: (1, "traces/canneal_big1.champsimtrace")
*** Reached end of trace: (6, "traces/canneal_big1.champsimtrace")
*** Reached end of trace: (7, "traces/canneal_big2.champsimtrace")
*** Reached end of trace: (2, "traces/canneal_big2.champsimtrace")
*** Reached end of trace: (12, "traces/canneal_big2.champsimtrace")
*** Reached end of trace: (9, "traces/canneal_big4.champsimtrace")
*** Reached end of trace: (14, "traces/canneal_big4.champsimtrace")
*** Reached end of trace: (4, "traces/canneal_big4.champsimtrace")
*** Reached end of trace: (8, "traces/canneal_big3.champsimtrace")
*** Reached end of trace: (13, "traces/canneal_big3.champsimtrace")
*** Reached end of trace: (3, "traces/canneal_big3.champsimtrace")
*** Reached end of trace: (0, "traces/canneal_big0.champsimtrace")
*** Reached end of trace: (15, "traces/canneal_big0.champsimtrace")
*** Reached end of trace: (10, "traces/canneal_big0.champsimtrace")
Heartbeat CPU 0 instructions: 30000009 cycles: 11777188 heartbeat IPC: 2.6 cumulative IPC: 2.547 (Simulation time: 01 hr 24 min 18 sec)
Heartbeat CPU 15 instructions: 30000009 cycles: 11777329 heartbeat IPC: 2.6 cumulative IPC: 2.547 (Simulation time: 01 hr 24 min 18 sec)
Heartbeat CPU 10 instructions: 30000009 cycles: 11777358 heartbeat IPC: 2.6 cumulative IPC: 2.547 (Simulation time: 01 hr 24 min 18 sec)
*** Reached end of trace: (5, "traces/canneal_big0.champsimtrace")
Heartbeat CPU 5 instructions: 30000009 cycles: 11797768 heartbeat IPC: 2.594 cumulative IPC: 2.543 (Simulation time: 01 hr 24 min 26 sec)
*** Reached end of trace: (7, "traces/canneal_big2.champsimtrace")
*** Reached end of trace: (2, "traces/canneal_big2.champsimtrace")
*** Reached end of trace: (12, "traces/canneal_big2.champsimtrace")
*** Reached end of trace: (9, "traces/canneal_big4.champsimtrace")
*** Reached end of trace: (14, "traces/canneal_big4.champsimtrace")
*** Reached end of trace: (4, "traces/canneal_big4.champsimtrace")
*** Reached end of trace: (8, "traces/canneal_big3.champsimtrace")
*** Reached end of trace: (13, "traces/canneal_big3.champsimtrace")
*** Reached end of trace: (3, "traces/canneal_big3.champsimtrace")
Heartbeat CPU 7 instructions: 50000001 cycles: 12505205 heartbeat IPC: 4 cumulative IPC: 3.998 (Simulation time: 01 hr 29 min 01 sec)
Warmup finished CPU 7 instructions: 50000001 cycles: 12505205 cumulative IPC: 3.998 (Simulation time: 01 hr 29 min 01 sec)
Heartbeat CPU 2 instructions: 50000001 cycles: 12505211 heartbeat IPC: 4 cumulative IPC: 3.998 (Simulation time: 01 hr 29 min 01 sec)
Warmup finished CPU 2 instructions: 50000001 cycles: 12505211 cumulative IPC: 3.998 (Simulation time: 01 hr 29 min 01 sec)
Heartbeat CPU 12 instructions: 50000001 cycles: 12505220 heartbeat IPC: 4 cumulative IPC: 3.998 (Simulation time: 01 hr 29 min 01 sec)
Warmup finished CPU 12 instructions: 50000001 cycles: 12505220 cumulative IPC: 3.998 (Simulation time: 01 hr 29 min 01 sec)
Heartbeat CPU 9 instructions: 50000000 cycles: 12505239 heartbeat IPC: 4 cumulative IPC: 3.998 (Simulation time: 01 hr 29 min 01 sec)
Warmup finished CPU 9 instructions: 50000000 cycles: 12505239 cumulative IPC: 3.998 (Simulation time: 01 hr 29 min 01 sec)
Heartbeat CPU 14 instructions: 50000001 cycles: 12505247 heartbeat IPC: 4 cumulative IPC: 3.998 (Simulation time: 01 hr 29 min 01 sec)
Warmup finished CPU 14 instructions: 50000001 cycles: 12505247 cumulative IPC: 3.998 (Simulation time: 01 hr 29 min 01 sec)
Heartbeat CPU 4 instructions: 50000003 cycles: 12505248 heartbeat IPC: 4 cumulative IPC: 3.998 (Simulation time: 01 hr 29 min 01 sec)
Warmup finished CPU 4 instructions: 50000003 cycles: 12505248 cumulative IPC: 3.998 (Simulation time: 01 hr 29 min 01 sec)
Heartbeat CPU 8 instructions: 50000002 cycles: 12505259 heartbeat IPC: 4 cumulative IPC: 3.998 (Simulation time: 01 hr 29 min 01 sec)
Warmup finished CPU 8 instructions: 50000002 cycles: 12505259 cumulative IPC: 3.998 (Simulation time: 01 hr 29 min 01 sec)
Heartbeat CPU 13 instructions: 50000001 cycles: 12505263 heartbeat IPC: 4 cumulative IPC: 3.998 (Simulation time: 01 hr 29 min 01 sec)
Warmup finished CPU 13 instructions: 50000001 cycles: 12505263 cumulative IPC: 3.998 (Simulation time: 01 hr 29 min 01 sec)
Heartbeat CPU 3 instructions: 50000001 cycles: 12505264 heartbeat IPC: 4 cumulative IPC: 3.998 (Simulation time: 01 hr 29 min 01 sec)
Warmup finished CPU 3 instructions: 50000001 cycles: 12505264 cumulative IPC: 3.998 (Simulation time: 01 hr 29 min 01 sec)
*** Reached end of trace: (11, "traces/canneal_big1.champsimtrace")
Heartbeat CPU 11 instructions: 20000004 cycles: 13550530 heartbeat IPC: 1.757 cumulative IPC: 1.476 (Simulation time: 01 hr 35 min 41 sec)
*** Reached end of trace: (1, "traces/canneal_big1.champsimtrace")
Heartbeat CPU 1 instructions: 20000004 cycles: 13562757 heartbeat IPC: 1.755 cumulative IPC: 1.475 (Simulation time: 01 hr 35 min 46 sec)
*** Reached end of trace: (6, "traces/canneal_big1.champsimtrace")
Heartbeat CPU 6 instructions: 20000004 cycles: 13622541 heartbeat IPC: 1.746 cumulative IPC: 1.468 (Simulation time: 01 hr 36 min 12 sec)
*** Reached end of trace: (0, "traces/canneal_big0.champsimtrace")
*** Reached end of trace: (15, "traces/canneal_big0.champsimtrace")
*** Reached end of trace: (10, "traces/canneal_big0.champsimtrace")
*** Reached end of trace: (5, "traces/canneal_big0.champsimtrace")
*** Reached end of trace: (7, "traces/canneal_big2.champsimtrace")
*** Reached end of trace: (2, "traces/canneal_big2.champsimtrace")
*** Reached end of trace: (12, "traces/canneal_big2.champsimtrace")
*** Reached end of trace: (9, "traces/canneal_big4.champsimtrace")
*** Reached end of trace: (4, "traces/canneal_big4.champsimtrace")
*** Reached end of trace: (14, "traces/canneal_big4.champsimtrace")
*** Reached end of trace: (8, "traces/canneal_big3.champsimtrace")
*** Reached end of trace: (13, "traces/canneal_big3.champsimtrace")
*** Reached end of trace: (3, "traces/canneal_big3.champsimtrace")
*** Reached end of trace: (7, "traces/canneal_big2.champsimtrace")
*** Reached end of trace: (2, "traces/canneal_big2.champsimtrace")
*** Reached end of trace: (12, "traces/canneal_big2.champsimtrace")
*** Reached end of trace: (9, "traces/canneal_big4.champsimtrace")
*** Reached end of trace: (14, "traces/canneal_big4.champsimtrace")
*** Reached end of trace: (4, "traces/canneal_big4.champsimtrace")
*** Reached end of trace: (8, "traces/canneal_big3.champsimtrace")
*** Reached end of trace: (13, "traces/canneal_big3.champsimtrace")
*** Reached end of trace: (3, "traces/canneal_big3.champsimtrace")
Heartbeat CPU 7 instructions: 60000001 cycles: 15005205 heartbeat IPC: 4 cumulative IPC: 3.999 (Simulation time: 01 hr 44 min 51 sec)
Heartbeat CPU 2 instructions: 60000001 cycles: 15005211 heartbeat IPC: 4 cumulative IPC: 3.999 (Simulation time: 01 hr 44 min 51 sec)
Heartbeat CPU 12 instructions: 60000001 cycles: 15005220 heartbeat IPC: 4 cumulative IPC: 3.999 (Simulation time: 01 hr 44 min 51 sec)
Heartbeat CPU 9 instructions: 60000000 cycles: 15005239 heartbeat IPC: 4 cumulative IPC: 3.999 (Simulation time: 01 hr 44 min 51 sec)
Heartbeat CPU 14 instructions: 60000001 cycles: 15005247 heartbeat IPC: 4 cumulative IPC: 3.999 (Simulation time: 01 hr 44 min 51 sec)
Heartbeat CPU 4 instructions: 60000003 cycles: 15005248 heartbeat IPC: 4 cumulative IPC: 3.999 (Simulation time: 01 hr 44 min 51 sec)
Heartbeat CPU 8 instructions: 60000002 cycles: 15005259 heartbeat IPC: 4 cumulative IPC: 3.999 (Simulation time: 01 hr 44 min 51 sec)
Heartbeat CPU 13 instructions: 60000001 cycles: 15005263 heartbeat IPC: 4 cumulative IPC: 3.999 (Simulation time: 01 hr 44 min 51 sec)
Heartbeat CPU 3 instructions: 60000001 cycles: 15005264 heartbeat IPC: 4 cumulative IPC: 3.999 (Simulation time: 01 hr 44 min 51 sec)
*** Reached end of trace: (0, "traces/canneal_big0.champsimtrace")
*** Reached end of trace: (15, "traces/canneal_big0.champsimtrace")
*** Reached end of trace: (10, "traces/canneal_big0.champsimtrace")
Heartbeat CPU 0 instructions: 40000012 cycles: 15623484 heartbeat IPC: 2.6 cumulative IPC: 2.56 (Simulation time: 01 hr 48 min 35 sec)
Heartbeat CPU 15 instructions: 40000012 cycles: 15623525 heartbeat IPC: 2.6 cumulative IPC: 2.56 (Simulation time: 01 hr 48 min 35 sec)
Heartbeat CPU 10 instructions: 40000012 cycles: 15623649 heartbeat IPC: 2.6 cumulative IPC: 2.56 (Simulation time: 01 hr 48 min 35 sec)
*** Reached end of trace: (5, "traces/canneal_big0.champsimtrace")
Heartbeat CPU 5 instructions: 40000012 cycles: 15652999 heartbeat IPC: 2.594 cumulative IPC: 2.555 (Simulation time: 01 hr 48 min 48 sec)
*** Reached end of trace: (7, "traces/canneal_big2.champsimtrace")
*** Reached end of trace: (2, "traces/canneal_big2.champsimtrace")
*** Reached end of trace: (12, "traces/canneal_big2.champsimtrace")
*** Reached end of trace: (9, "traces/canneal_big4.champsimtrace")
*** Reached end of trace: (14, "traces/canneal_big4.champsimtrace")
*** Reached end of trace: (4, "traces/canneal_big4.champsimtrace")
*** Reached end of trace: (8, "traces/canneal_big3.champsimtrace")
*** Reached end of trace: (13, "traces/canneal_big3.champsimtrace")
*** Reached end of trace: (3, "traces/canneal_big3.champsimtrace")
*** Reached end of trace: (11, "traces/canneal_big1.champsimtrace")
*** Reached end of trace: (1, "traces/canneal_big1.champsimtrace")
*** Reached end of trace: (6, "traces/canneal_big1.champsimtrace")
*** Reached end of trace: (7, "traces/canneal_big2.champsimtrace")
*** Reached end of trace: (2, "traces/canneal_big2.champsimtrace")
*** Reached end of trace: (12, "traces/canneal_big2.champsimtrace")
*** Reached end of trace: (9, "traces/canneal_big4.champsimtrace")
*** Reached end of trace: (4, "traces/canneal_big4.champsimtrace")
*** Reached end of trace: (14, "traces/canneal_big4.champsimtrace")
*** Reached end of trace: (8, "traces/canneal_big3.champsimtrace")
*** Reached end of trace: (13, "traces/canneal_big3.champsimtrace")
*** Reached end of trace: (3, "traces/canneal_big3.champsimtrace")
Heartbeat CPU 7 instructions: 70000001 cycles: 17505205 heartbeat IPC: 4 cumulative IPC: 3.999 (Simulation time: 02 hr 00 min 14 sec)
Heartbeat CPU 2 instructions: 70000001 cycles: 17505211 heartbeat IPC: 4 cumulative IPC: 3.999 (Simulation time: 02 hr 00 min 14 sec)
Heartbeat CPU 12 instructions: 70000001 cycles: 17505220 heartbeat IPC: 4 cumulative IPC: 3.999 (Simulation time: 02 hr 00 min 14 sec)
Heartbeat CPU 9 instructions: 70000000 cycles: 17505239 heartbeat IPC: 4 cumulative IPC: 3.999 (Simulation time: 02 hr 00 min 14 sec)
Heartbeat CPU 14 instructions: 70000001 cycles: 17505247 heartbeat IPC: 4 cumulative IPC: 3.999 (Simulation time: 02 hr 00 min 14 sec)
Heartbeat CPU 4 instructions: 70000003 cycles: 17505248 heartbeat IPC: 4 cumulative IPC: 3.999 (Simulation time: 02 hr 00 min 14 sec)
Heartbeat CPU 8 instructions: 70000002 cycles: 17505259 heartbeat IPC: 4 cumulative IPC: 3.999 (Simulation time: 02 hr 00 min 14 sec)
Heartbeat CPU 13 instructions: 70000001 cycles: 17505263 heartbeat IPC: 4 cumulative IPC: 3.999 (Simulation time: 02 hr 00 min 14 sec)
Heartbeat CPU 3 instructions: 70000001 cycles: 17505264 heartbeat IPC: 4 cumulative IPC: 3.999 (Simulation time: 02 hr 00 min 14 sec)
*** Reached end of trace: (0, "traces/canneal_big0.champsimtrace")
*** Reached end of trace: (15, "traces/canneal_big0.champsimtrace")
*** Reached end of trace: (10, "traces/canneal_big0.champsimtrace")
*** Reached end of trace: (5, "traces/canneal_big0.champsimtrace")
*** Reached end of trace: (7, "traces/canneal_big2.champsimtrace")
*** Reached end of trace: (2, "traces/canneal_big2.champsimtrace")
*** Reached end of trace: (12, "traces/canneal_big2.champsimtrace")
*** Reached end of trace: (9, "traces/canneal_big4.champsimtrace")
*** Reached end of trace: (4, "traces/canneal_big4.champsimtrace")
*** Reached end of trace: (14, "traces/canneal_big4.champsimtrace")
*** Reached end of trace: (8, "traces/canneal_big3.champsimtrace")
*** Reached end of trace: (13, "traces/canneal_big3.champsimtrace")
*** Reached end of trace: (3, "traces/canneal_big3.champsimtrace")
*** Reached end of trace: (11, "traces/canneal_big1.champsimtrace")
Heartbeat CPU 11 instructions: 30000004 cycles: 19243541 heartbeat IPC: 1.757 cumulative IPC: 1.559 (Simulation time: 02 hr 11 min 15 sec)
*** Reached end of trace: (1, "traces/canneal_big1.champsimtrace")
Heartbeat CPU 1 instructions: 30000004 cycles: 19260758 heartbeat IPC: 1.755 cumulative IPC: 1.558 (Simulation time: 02 hr 11 min 22 sec)
*** Reached end of trace: (6, "traces/canneal_big1.champsimtrace")
Heartbeat CPU 6 instructions: 30000004 cycles: 19349782 heartbeat IPC: 1.746 cumulative IPC: 1.55 (Simulation time: 02 hr 11 min 56 sec)
*** Reached end of trace: (0, "traces/canneal_big0.champsimtrace")
*** Reached end of trace: (15, "traces/canneal_big0.champsimtrace")
Warmup finished CPU 0 instructions: 50000000 cycles: 19469672 cumulative IPC: 2.568 (Simulation time: 02 hr 12 min 40 sec)
Heartbeat CPU 0 instructions: 50000015 cycles: 19469675 heartbeat IPC: 2.6 cumulative IPC: 2.568 (Simulation time: 02 hr 12 min 40 sec)
Warmup finished CPU 15 instructions: 50000000 cycles: 19469714 cumulative IPC: 2.568 (Simulation time: 02 hr 12 min 40 sec)
Heartbeat CPU 15 instructions: 50000015 cycles: 19469717 heartbeat IPC: 2.6 cumulative IPC: 2.568 (Simulation time: 02 hr 12 min 40 sec)
*** Reached end of trace: (10, "traces/canneal_big0.champsimtrace")
Warmup finished CPU 10 instructions: 50000000 cycles: 19469937 cumulative IPC: 2.568 (Simulation time: 02 hr 12 min 40 sec)
Heartbeat CPU 10 instructions: 50000015 cycles: 19469940 heartbeat IPC: 2.6 cumulative IPC: 2.568 (Simulation time: 02 hr 12 min 40 sec)
*** Reached end of trace: (5, "traces/canneal_big0.champsimtrace")
Warmup finished CPU 5 instructions: 50000000 cycles: 19508227 cumulative IPC: 2.563 (Simulation time: 02 hr 12 min 56 sec)
Heartbeat CPU 5 instructions: 50000015 cycles: 19508230 heartbeat IPC: 2.594 cumulative IPC: 2.563 (Simulation time: 02 hr 12 min 56 sec)
*** Reached end of trace: (7, "traces/canneal_big2.champsimtrace")
*** Reached end of trace: (2, "traces/canneal_big2.champsimtrace")
*** Reached end of trace: (12, "traces/canneal_big2.champsimtrace")
*** Reached end of trace: (9, "traces/canneal_big4.champsimtrace")
*** Reached end of trace: (4, "traces/canneal_big4.champsimtrace")
*** Reached end of trace: (14, "traces/canneal_big4.champsimtrace")
*** Reached end of trace: (8, "traces/canneal_big3.champsimtrace")
*** Reached end of trace: (13, "traces/canneal_big3.champsimtrace")
*** Reached end of trace: (3, "traces/canneal_big3.champsimtrace")
Heartbeat CPU 7 instructions: 80000001 cycles: 20005205 heartbeat IPC: 4 cumulative IPC: 3.999 (Simulation time: 02 hr 16 min 17 sec)
Heartbeat CPU 2 instructions: 80000001 cycles: 20005211 heartbeat IPC: 4 cumulative IPC: 3.999 (Simulation time: 02 hr 16 min 17 sec)
Heartbeat CPU 12 instructions: 80000001 cycles: 20005220 heartbeat IPC: 4 cumulative IPC: 3.999 (Simulation time: 02 hr 16 min 17 sec)
Heartbeat CPU 9 instructions: 80000000 cycles: 20005239 heartbeat IPC: 4 cumulative IPC: 3.999 (Simulation time: 02 hr 16 min 17 sec)
Heartbeat CPU 14 instructions: 80000001 cycles: 20005247 heartbeat IPC: 4 cumulative IPC: 3.999 (Simulation time: 02 hr 16 min 17 sec)
Heartbeat CPU 4 instructions: 80000003 cycles: 20005248 heartbeat IPC: 4 cumulative IPC: 3.999 (Simulation time: 02 hr 16 min 17 sec)
Heartbeat CPU 8 instructions: 80000002 cycles: 20005259 heartbeat IPC: 4 cumulative IPC: 3.999 (Simulation time: 02 hr 16 min 17 sec)
Heartbeat CPU 13 instructions: 80000001 cycles: 20005263 heartbeat IPC: 4 cumulative IPC: 3.999 (Simulation time: 02 hr 16 min 17 sec)
Heartbeat CPU 3 instructions: 80000001 cycles: 20005264 heartbeat IPC: 4 cumulative IPC: 3.999 (Simulation time: 02 hr 16 min 17 sec)
*** Reached end of trace: (7, "traces/canneal_big2.champsimtrace")
*** Reached end of trace: (2, "traces/canneal_big2.champsimtrace")
*** Reached end of trace: (12, "traces/canneal_big2.champsimtrace")
*** Reached end of trace: (9, "traces/canneal_big4.champsimtrace")
*** Reached end of trace: (14, "traces/canneal_big4.champsimtrace")
*** Reached end of trace: (4, "traces/canneal_big4.champsimtrace")
*** Reached end of trace: (8, "traces/canneal_big3.champsimtrace")
*** Reached end of trace: (13, "traces/canneal_big3.champsimtrace")
*** Reached end of trace: (3, "traces/canneal_big3.champsimtrace")
*** Reached end of trace: (0, "traces/canneal_big0.champsimtrace")
*** Reached end of trace: (15, "traces/canneal_big0.champsimtrace")
*** Reached end of trace: (10, "traces/canneal_big0.champsimtrace")
*** Reached end of trace: (5, "traces/canneal_big0.champsimtrace")
*** Reached end of trace: (11, "traces/canneal_big1.champsimtrace")
*** Reached end of trace: (1, "traces/canneal_big1.champsimtrace")
*** Reached end of trace: (6, "traces/canneal_big1.champsimtrace")
*** Reached end of trace: (7, "traces/canneal_big2.champsimtrace")
*** Reached end of trace: (2, "traces/canneal_big2.champsimtrace")
*** Reached end of trace: (12, "traces/canneal_big2.champsimtrace")
*** Reached end of trace: (9, "traces/canneal_big4.champsimtrace")
*** Reached end of trace: (14, "traces/canneal_big4.champsimtrace")
*** Reached end of trace: (4, "traces/canneal_big4.champsimtrace")
*** Reached end of trace: (8, "traces/canneal_big3.champsimtrace")
*** Reached end of trace: (13, "traces/canneal_big3.champsimtrace")
*** Reached end of trace: (3, "traces/canneal_big3.champsimtrace")
Heartbeat CPU 7 instructions: 90000001 cycles: 22505205 heartbeat IPC: 4 cumulative IPC: 3.999 (Simulation time: 02 hr 32 min 47 sec)
Heartbeat CPU 2 instructions: 90000001 cycles: 22505211 heartbeat IPC: 4 cumulative IPC: 3.999 (Simulation time: 02 hr 32 min 47 sec)
Heartbeat CPU 12 instructions: 90000001 cycles: 22505220 heartbeat IPC: 4 cumulative IPC: 3.999 (Simulation time: 02 hr 32 min 47 sec)
Heartbeat CPU 9 instructions: 90000000 cycles: 22505239 heartbeat IPC: 4 cumulative IPC: 3.999 (Simulation time: 02 hr 32 min 47 sec)
Heartbeat CPU 14 instructions: 90000001 cycles: 22505247 heartbeat IPC: 4 cumulative IPC: 3.999 (Simulation time: 02 hr 32 min 47 sec)
Heartbeat CPU 4 instructions: 90000003 cycles: 22505248 heartbeat IPC: 4 cumulative IPC: 3.999 (Simulation time: 02 hr 32 min 47 sec)
Heartbeat CPU 8 instructions: 90000002 cycles: 22505259 heartbeat IPC: 4 cumulative IPC: 3.999 (Simulation time: 02 hr 32 min 47 sec)
Heartbeat CPU 13 instructions: 90000001 cycles: 22505263 heartbeat IPC: 4 cumulative IPC: 3.999 (Simulation time: 02 hr 32 min 47 sec)
Heartbeat CPU 3 instructions: 90000001 cycles: 22505264 heartbeat IPC: 4 cumulative IPC: 3.999 (Simulation time: 02 hr 32 min 47 sec)
*** Reached end of trace: (0, "traces/canneal_big0.champsimtrace")
*** Reached end of trace: (15, "traces/canneal_big0.champsimtrace")
Heartbeat CPU 0 instructions: 60000018 cycles: 23315866 heartbeat IPC: 2.6 cumulative IPC: 2.573 (Simulation time: 02 hr 37 min 57 sec)
Heartbeat CPU 15 instructions: 60000018 cycles: 23315907 heartbeat IPC: 2.6 cumulative IPC: 2.573 (Simulation time: 02 hr 37 min 57 sec)
*** Reached end of trace: (10, "traces/canneal_big0.champsimtrace")
Heartbeat CPU 10 instructions: 60000018 cycles: 23316231 heartbeat IPC: 2.6 cumulative IPC: 2.573 (Simulation time: 02 hr 37 min 57 sec)
*** Reached end of trace: (5, "traces/canneal_big0.champsimtrace")
Heartbeat CPU 5 instructions: 60000018 cycles: 23363506 heartbeat IPC: 2.594 cumulative IPC: 2.568 (Simulation time: 02 hr 38 min 15 sec)
*** Reached end of trace: (7, "traces/canneal_big2.champsimtrace")
*** Reached end of trace: (2, "traces/canneal_big2.champsimtrace")
*** Reached end of trace: (12, "traces/canneal_big2.champsimtrace")
*** Reached end of trace: (9, "traces/canneal_big4.champsimtrace")
*** Reached end of trace: (4, "traces/canneal_big4.champsimtrace")
*** Reached end of trace: (14, "traces/canneal_big4.champsimtrace")
*** Reached end of trace: (8, "traces/canneal_big3.champsimtrace")
*** Reached end of trace: (13, "traces/canneal_big3.champsimtrace")
*** Reached end of trace: (3, "traces/canneal_big3.champsimtrace")
*** Reached end of trace: (11, "traces/canneal_big1.champsimtrace")
Heartbeat CPU 11 instructions: 40000006 cycles: 24936652 heartbeat IPC: 1.757 cumulative IPC: 1.604 (Simulation time: 02 hr 48 min 46 sec)
*** Reached end of trace: (1, "traces/canneal_big1.champsimtrace")
Heartbeat CPU 1 instructions: 40000006 cycles: 24958828 heartbeat IPC: 1.755 cumulative IPC: 1.603 (Simulation time: 02 hr 48 min 54 sec)
*** Reached end of trace: (7, "traces/canneal_big2.champsimtrace")
*** Reached end of trace: (2, "traces/canneal_big2.champsimtrace")
*** Reached end of trace: (12, "traces/canneal_big2.champsimtrace")
*** Reached end of trace: (9, "traces/canneal_big4.champsimtrace")
*** Reached end of trace: (14, "traces/canneal_big4.champsimtrace")
*** Reached end of trace: (4, "traces/canneal_big4.champsimtrace")
*** Reached end of trace: (8, "traces/canneal_big3.champsimtrace")
*** Reached end of trace: (13, "traces/canneal_big3.champsimtrace")
*** Reached end of trace: (3, "traces/canneal_big3.champsimtrace")
Heartbeat CPU 7 instructions: 100000001 cycles: 25005205 heartbeat IPC: 4 cumulative IPC: 3.999 (Simulation time: 02 hr 49 min 13 sec)
Heartbeat CPU 2 instructions: 100000001 cycles: 25005211 heartbeat IPC: 4 cumulative IPC: 3.999 (Simulation time: 02 hr 49 min 13 sec)
Heartbeat CPU 12 instructions: 100000001 cycles: 25005220 heartbeat IPC: 4 cumulative IPC: 3.999 (Simulation time: 02 hr 49 min 13 sec)
Heartbeat CPU 9 instructions: 100000000 cycles: 25005239 heartbeat IPC: 4 cumulative IPC: 3.999 (Simulation time: 02 hr 49 min 13 sec)
Heartbeat CPU 14 instructions: 100000001 cycles: 25005247 heartbeat IPC: 4 cumulative IPC: 3.999 (Simulation time: 02 hr 49 min 13 sec)
Heartbeat CPU 4 instructions: 100000003 cycles: 25005248 heartbeat IPC: 4 cumulative IPC: 3.999 (Simulation time: 02 hr 49 min 13 sec)
Heartbeat CPU 8 instructions: 100000002 cycles: 25005259 heartbeat IPC: 4 cumulative IPC: 3.999 (Simulation time: 02 hr 49 min 13 sec)
Heartbeat CPU 13 instructions: 100000001 cycles: 25005263 heartbeat IPC: 4 cumulative IPC: 3.999 (Simulation time: 02 hr 49 min 13 sec)
Heartbeat CPU 3 instructions: 100000001 cycles: 25005264 heartbeat IPC: 4 cumulative IPC: 3.999 (Simulation time: 02 hr 49 min 13 sec)
*** Reached end of trace: (6, "traces/canneal_big1.champsimtrace")
Heartbeat CPU 6 instructions: 40000006 cycles: 25077021 heartbeat IPC: 1.746 cumulative IPC: 1.595 (Simulation time: 02 hr 49 min 42 sec)
*** Reached end of trace: (0, "traces/canneal_big0.champsimtrace")
*** Reached end of trace: (15, "traces/canneal_big0.champsimtrace")
*** Reached end of trace: (10, "traces/canneal_big0.champsimtrace")
*** Reached end of trace: (5, "traces/canneal_big0.champsimtrace")
*** Reached end of trace: (7, "traces/canneal_big2.champsimtrace")
*** Reached end of trace: (2, "traces/canneal_big2.champsimtrace")
*** Reached end of trace: (12, "traces/canneal_big2.champsimtrace")
*** Reached end of trace: (9, "traces/canneal_big4.champsimtrace")
*** Reached end of trace: (14, "traces/canneal_big4.champsimtrace")
*** Reached end of trace: (4, "traces/canneal_big4.champsimtrace")
*** Reached end of trace: (8, "traces/canneal_big3.champsimtrace")
*** Reached end of trace: (13, "traces/canneal_big3.champsimtrace")
*** Reached end of trace: (3, "traces/canneal_big3.champsimtrace")
*** Reached end of trace: (0, "traces/canneal_big0.champsimtrace")
*** Reached end of trace: (15, "traces/canneal_big0.champsimtrace")
Heartbeat CPU 0 instructions: 70000021 cycles: 27162007 heartbeat IPC: 2.6 cumulative IPC: 2.577 (Simulation time: 03 hr 03 min 42 sec)
Heartbeat CPU 15 instructions: 70000021 cycles: 27162098 heartbeat IPC: 2.6 cumulative IPC: 2.577 (Simulation time: 03 hr 03 min 42 sec)
*** Reached end of trace: (10, "traces/canneal_big0.champsimtrace")
Heartbeat CPU 10 instructions: 70000021 cycles: 27162457 heartbeat IPC: 2.6 cumulative IPC: 2.577 (Simulation time: 03 hr 03 min 42 sec)
*** Reached end of trace: (5, "traces/canneal_big0.champsimtrace")
Heartbeat CPU 5 instructions: 70000021 cycles: 27218737 heartbeat IPC: 2.594 cumulative IPC: 2.572 (Simulation time: 03 hr 04 min 05 sec)
*** Reached end of trace: (7, "traces/canneal_big2.champsimtrace")
*** Reached end of trace: (2, "traces/canneal_big2.champsimtrace")
*** Reached end of trace: (12, "traces/canneal_big2.champsimtrace")
*** Reached end of trace: (9, "traces/canneal_big4.champsimtrace")
*** Reached end of trace: (4, "traces/canneal_big4.champsimtrace")
*** Reached end of trace: (14, "traces/canneal_big4.champsimtrace")
*** Reached end of trace: (8, "traces/canneal_big3.champsimtrace")
*** Reached end of trace: (13, "traces/canneal_big3.champsimtrace")
*** Reached end of trace: (3, "traces/canneal_big3.champsimtrace")
Heartbeat CPU 7 instructions: 110000001 cycles: 27505205 heartbeat IPC: 4 cumulative IPC: 3.999 (Simulation time: 03 hr 06 min 25 sec)
Heartbeat CPU 2 instructions: 110000001 cycles: 27505211 heartbeat IPC: 4 cumulative IPC: 3.999 (Simulation time: 03 hr 06 min 25 sec)
Heartbeat CPU 12 instructions: 110000001 cycles: 27505220 heartbeat IPC: 4 cumulative IPC: 3.999 (Simulation time: 03 hr 06 min 25 sec)
Heartbeat CPU 9 instructions: 110000000 cycles: 27505239 heartbeat IPC: 4 cumulative IPC: 3.999 (Simulation time: 03 hr 06 min 25 sec)
Heartbeat CPU 14 instructions: 110000001 cycles: 27505247 heartbeat IPC: 4 cumulative IPC: 3.999 (Simulation time: 03 hr 06 min 25 sec)
Heartbeat CPU 4 instructions: 110000003 cycles: 27505248 heartbeat IPC: 4 cumulative IPC: 3.999 (Simulation time: 03 hr 06 min 25 sec)
Heartbeat CPU 8 instructions: 110000002 cycles: 27505259 heartbeat IPC: 4 cumulative IPC: 3.999 (Simulation time: 03 hr 06 min 25 sec)
Heartbeat CPU 13 instructions: 110000001 cycles: 27505263 heartbeat IPC: 4 cumulative IPC: 3.999 (Simulation time: 03 hr 06 min 25 sec)
Heartbeat CPU 3 instructions: 110000001 cycles: 27505264 heartbeat IPC: 4 cumulative IPC: 3.999 (Simulation time: 03 hr 06 min 25 sec)
*** Reached end of trace: (11, "traces/canneal_big1.champsimtrace")
*** Reached end of trace: (1, "traces/canneal_big1.champsimtrace")
*** Reached end of trace: (6, "traces/canneal_big1.champsimtrace")
*** Reached end of trace: (7, "traces/canneal_big2.champsimtrace")
*** Reached end of trace: (2, "traces/canneal_big2.champsimtrace")
*** Reached end of trace: (12, "traces/canneal_big2.champsimtrace")
*** Reached end of trace: (9, "traces/canneal_big4.champsimtrace")
*** Reached end of trace: (4, "traces/canneal_big4.champsimtrace")
*** Reached end of trace: (14, "traces/canneal_big4.champsimtrace")
*** Reached end of trace: (8, "traces/canneal_big3.champsimtrace")
*** Reached end of trace: (13, "traces/canneal_big3.champsimtrace")
*** Reached end of trace: (3, "traces/canneal_big3.champsimtrace")
*** Reached end of trace: (0, "traces/canneal_big0.champsimtrace")
*** Reached end of trace: (15, "traces/canneal_big0.champsimtrace")
*** Reached end of trace: (10, "traces/canneal_big0.champsimtrace")
*** Reached end of trace: (5, "traces/canneal_big0.champsimtrace")
*** Reached end of trace: (7, "traces/canneal_big2.champsimtrace")
*** Reached end of trace: (2, "traces/canneal_big2.champsimtrace")
*** Reached end of trace: (12, "traces/canneal_big2.champsimtrace")
*** Reached end of trace: (9, "traces/canneal_big4.champsimtrace")
*** Reached end of trace: (4, "traces/canneal_big4.champsimtrace")
*** Reached end of trace: (14, "traces/canneal_big4.champsimtrace")
*** Reached end of trace: (8, "traces/canneal_big3.champsimtrace")
*** Reached end of trace: (13, "traces/canneal_big3.champsimtrace")
*** Reached end of trace: (3, "traces/canneal_big3.champsimtrace")
Heartbeat CPU 7 instructions: 120000001 cycles: 30005205 heartbeat IPC: 4 cumulative IPC: 3.999 (Simulation time: 03 hr 23 min 26 sec)
Heartbeat CPU 2 instructions: 120000001 cycles: 30005211 heartbeat IPC: 4 cumulative IPC: 3.999 (Simulation time: 03 hr 23 min 26 sec)
Heartbeat CPU 12 instructions: 120000001 cycles: 30005220 heartbeat IPC: 4 cumulative IPC: 3.999 (Simulation time: 03 hr 23 min 26 sec)
Heartbeat CPU 9 instructions: 120000000 cycles: 30005239 heartbeat IPC: 4 cumulative IPC: 3.999 (Simulation time: 03 hr 23 min 26 sec)
Heartbeat CPU 14 instructions: 120000001 cycles: 30005247 heartbeat IPC: 4 cumulative IPC: 3.999 (Simulation time: 03 hr 23 min 26 sec)
Heartbeat CPU 4 instructions: 120000003 cycles: 30005248 heartbeat IPC: 4 cumulative IPC: 3.999 (Simulation time: 03 hr 23 min 26 sec)
Heartbeat CPU 8 instructions: 120000002 cycles: 30005259 heartbeat IPC: 4 cumulative IPC: 3.999 (Simulation time: 03 hr 23 min 26 sec)
Heartbeat CPU 13 instructions: 120000001 cycles: 30005263 heartbeat IPC: 4 cumulative IPC: 3.999 (Simulation time: 03 hr 23 min 26 sec)
Heartbeat CPU 3 instructions: 120000001 cycles: 30005264 heartbeat IPC: 4 cumulative IPC: 3.999 (Simulation time: 03 hr 23 min 26 sec)
*** Reached end of trace: (11, "traces/canneal_big1.champsimtrace")
Warmup finished CPU 11 instructions: 50000000 cycles: 30629691 cumulative IPC: 1.632 (Simulation time: 03 hr 27 min 22 sec)
Heartbeat CPU 11 instructions: 50000008 cycles: 30629713 heartbeat IPC: 1.757 cumulative IPC: 1.632 (Simulation time: 03 hr 27 min 22 sec)
*** Reached end of trace: (1, "traces/canneal_big1.champsimtrace")
Warmup finished CPU 1 instructions: 50000000 cycles: 30656843 cumulative IPC: 1.631 (Simulation time: 03 hr 27 min 31 sec)
Heartbeat CPU 1 instructions: 50000008 cycles: 30656864 heartbeat IPC: 1.755 cumulative IPC: 1.631 (Simulation time: 03 hr 27 min 31 sec)
*** Reached end of trace: (6, "traces/canneal_big1.champsimtrace")
Warmup finished CPU 6 instructions: 50000000 cycles: 30804192 cumulative IPC: 1.623 (Simulation time: 03 hr 28 min 25 sec)
Warmup complete CPU 9 instructions: 123195812 cycles: 30804192 cumulative IPC: 3.999 (Simulation time: 03 hr 28 min 25 sec)
Warmup complete CPU 8 instructions: 123195734 cycles: 30804192 cumulative IPC: 3.999 (Simulation time: 03 hr 28 min 25 sec)
Warmup complete CPU 7 instructions: 123195949 cycles: 30804192 cumulative IPC: 3.999 (Simulation time: 03 hr 28 min 25 sec)
Warmup complete CPU 6 instructions: 50000000 cycles: 30804192 cumulative IPC: 1.623 (Simulation time: 03 hr 28 min 25 sec)
Warmup complete CPU 5 instructions: 79349624 cycles: 30804192 cumulative IPC: 2.576 (Simulation time: 03 hr 28 min 25 sec)
Warmup complete CPU 4 instructions: 123195779 cycles: 30804192 cumulative IPC: 3.999 (Simulation time: 03 hr 28 min 25 sec)
Warmup complete CPU 3 instructions: 123195713 cycles: 30804192 cumulative IPC: 3.999 (Simulation time: 03 hr 28 min 25 sec)
Warmup complete CPU 2 instructions: 123195925 cycles: 30804192 cumulative IPC: 3.999 (Simulation time: 03 hr 28 min 25 sec)
Warmup complete CPU 15 instructions: 79507139 cycles: 30804192 cumulative IPC: 2.581 (Simulation time: 03 hr 28 min 25 sec)
Warmup complete CPU 14 instructions: 123195781 cycles: 30804192 cumulative IPC: 3.999 (Simulation time: 03 hr 28 min 25 sec)
Warmup complete CPU 13 instructions: 123195717 cycles: 30804192 cumulative IPC: 3.999 (Simulation time: 03 hr 28 min 25 sec)
Warmup complete CPU 12 instructions: 123195889 cycles: 30804192 cumulative IPC: 3.999 (Simulation time: 03 hr 28 min 25 sec)
Warmup complete CPU 11 instructions: 50268024 cycles: 30804192 cumulative IPC: 1.632 (Simulation time: 03 hr 28 min 25 sec)
Warmup complete CPU 10 instructions: 79505999 cycles: 30804192 cumulative IPC: 2.581 (Simulation time: 03 hr 28 min 25 sec)
Warmup complete CPU 1 instructions: 50221558 cycles: 30804192 cumulative IPC: 1.63 (Simulation time: 03 hr 28 min 25 sec)
Warmup complete CPU 0 instructions: 79507289 cycles: 30804192 cumulative IPC: 2.581 (Simulation time: 03 hr 28 min 25 sec)
Heartbeat CPU 6 instructions: 50000008 cycles: 30805624 heartbeat IPC: 1.746 cumulative IPC: 0.005587 (Simulation time: 03 hr 28 min 25 sec)
*** Reached end of trace: (7, "traces/canneal_big2.champsimtrace")
*** Reached end of trace: (2, "traces/canneal_big2.champsimtrace")
*** Reached end of trace: (12, "traces/canneal_big2.champsimtrace")
*** Reached end of trace: (9, "traces/canneal_big4.champsimtrace")
*** Reached end of trace: (4, "traces/canneal_big4.champsimtrace")
*** Reached end of trace: (14, "traces/canneal_big4.champsimtrace")
*** Reached end of trace: (8, "traces/canneal_big3.champsimtrace")
*** Reached end of trace: (13, "traces/canneal_big3.champsimtrace")
*** Reached end of trace: (3, "traces/canneal_big3.champsimtrace")
*** Reached end of trace: (0, "traces/canneal_big0.champsimtrace")
*** Reached end of trace: (15, "traces/canneal_big0.champsimtrace")
Heartbeat CPU 0 instructions: 80000021 cycles: 31261752 heartbeat IPC: 2.439 cumulative IPC: 1.077 (Simulation time: 03 hr 31 min 15 sec)
Heartbeat CPU 15 instructions: 80000021 cycles: 31262266 heartbeat IPC: 2.439 cumulative IPC: 1.076 (Simulation time: 03 hr 31 min 15 sec)
*** Reached end of trace: (10, "traces/canneal_big0.champsimtrace")
Heartbeat CPU 10 instructions: 80000021 cycles: 31268247 heartbeat IPC: 2.436 cumulative IPC: 1.065 (Simulation time: 03 hr 31 min 18 sec)
*** Reached end of trace: (5, "traces/canneal_big0.champsimtrace")
Heartbeat CPU 5 instructions: 80000024 cycles: 31356853 heartbeat IPC: 2.417 cumulative IPC: 1.177 (Simulation time: 03 hr 31 min 54 sec)
*** Reached end of trace: (7, "traces/canneal_big2.champsimtrace")
*** Reached end of trace: (2, "traces/canneal_big2.champsimtrace")
*** Reached end of trace: (12, "traces/canneal_big2.champsimtrace")
*** Reached end of trace: (9, "traces/canneal_big4.champsimtrace")
*** Reached end of trace: (14, "traces/canneal_big4.champsimtrace")
*** Reached end of trace: (4, "traces/canneal_big4.champsimtrace")
*** Reached end of trace: (8, "traces/canneal_big3.champsimtrace")
*** Reached end of trace: (13, "traces/canneal_big3.champsimtrace")
*** Reached end of trace: (3, "traces/canneal_big3.champsimtrace")
Heartbeat CPU 7 instructions: 130000001 cycles: 32505205 heartbeat IPC: 4 cumulative IPC: 4 (Simulation time: 03 hr 39 min 14 sec)
Heartbeat CPU 2 instructions: 130000001 cycles: 32505211 heartbeat IPC: 4 cumulative IPC: 4 (Simulation time: 03 hr 39 min 14 sec)
Heartbeat CPU 12 instructions: 130000001 cycles: 32505220 heartbeat IPC: 4 cumulative IPC: 4 (Simulation time: 03 hr 39 min 14 sec)
Heartbeat CPU 9 instructions: 130000000 cycles: 32505239 heartbeat IPC: 4 cumulative IPC: 4 (Simulation time: 03 hr 39 min 14 sec)
Heartbeat CPU 14 instructions: 130000001 cycles: 32505247 heartbeat IPC: 4 cumulative IPC: 4 (Simulation time: 03 hr 39 min 14 sec)
Heartbeat CPU 4 instructions: 130000003 cycles: 32505248 heartbeat IPC: 4 cumulative IPC: 4 (Simulation time: 03 hr 39 min 14 sec)
Heartbeat CPU 8 instructions: 130000002 cycles: 32505259 heartbeat IPC: 4 cumulative IPC: 4 (Simulation time: 03 hr 39 min 14 sec)
Heartbeat CPU 13 instructions: 130000001 cycles: 32505263 heartbeat IPC: 4 cumulative IPC: 4 (Simulation time: 03 hr 39 min 14 sec)
Heartbeat CPU 3 instructions: 130000001 cycles: 32505264 heartbeat IPC: 4 cumulative IPC: 4 (Simulation time: 03 hr 39 min 14 sec)
*** Reached end of trace: (7, "traces/canneal_big2.champsimtrace")
*** Reached end of trace: (2, "traces/canneal_big2.champsimtrace")
*** Reached end of trace: (12, "traces/canneal_big2.champsimtrace")
*** Reached end of trace: (9, "traces/canneal_big4.champsimtrace")
*** Reached end of trace: (14, "traces/canneal_big4.champsimtrace")
*** Reached end of trace: (4, "traces/canneal_big4.champsimtrace")
*** Reached end of trace: (8, "traces/canneal_big3.champsimtrace")
*** Reached end of trace: (13, "traces/canneal_big3.champsimtrace")
*** Reached end of trace: (3, "traces/canneal_big3.champsimtrace")
*** Reached end of trace: (7, "traces/canneal_big2.champsimtrace")
*** Reached end of trace: (2, "traces/canneal_big2.champsimtrace")
*** Reached end of trace: (12, "traces/canneal_big2.champsimtrace")
*** Reached end of trace: (9, "traces/canneal_big4.champsimtrace")
*** Reached end of trace: (4, "traces/canneal_big4.champsimtrace")
*** Reached end of trace: (14, "traces/canneal_big4.champsimtrace")
*** Reached end of trace: (8, "traces/canneal_big3.champsimtrace")
*** Reached end of trace: (13, "traces/canneal_big3.champsimtrace")
*** Reached end of trace: (3, "traces/canneal_big3.champsimtrace")
Heartbeat CPU 7 instructions: 140000001 cycles: 35005205 heartbeat IPC: 4 cumulative IPC: 4 (Simulation time: 03 hr 53 min 43 sec)
Heartbeat CPU 2 instructions: 140000001 cycles: 35005211 heartbeat IPC: 4 cumulative IPC: 4 (Simulation time: 03 hr 53 min 43 sec)
Heartbeat CPU 12 instructions: 140000001 cycles: 35005220 heartbeat IPC: 4 cumulative IPC: 4 (Simulation time: 03 hr 53 min 43 sec)
Heartbeat CPU 9 instructions: 140000000 cycles: 35005239 heartbeat IPC: 4 cumulative IPC: 4 (Simulation time: 03 hr 53 min 43 sec)
Heartbeat CPU 14 instructions: 140000001 cycles: 35005247 heartbeat IPC: 4 cumulative IPC: 4 (Simulation time: 03 hr 53 min 43 sec)
Heartbeat CPU 4 instructions: 140000003 cycles: 35005248 heartbeat IPC: 4 cumulative IPC: 4 (Simulation time: 03 hr 53 min 43 sec)
Heartbeat CPU 8 instructions: 140000002 cycles: 35005259 heartbeat IPC: 4 cumulative IPC: 4 (Simulation time: 03 hr 53 min 43 sec)
Heartbeat CPU 13 instructions: 140000001 cycles: 35005263 heartbeat IPC: 4 cumulative IPC: 4 (Simulation time: 03 hr 53 min 43 sec)
Heartbeat CPU 3 instructions: 140000001 cycles: 35005264 heartbeat IPC: 4 cumulative IPC: 4 (Simulation time: 03 hr 53 min 43 sec)
*** Reached end of trace: (7, "traces/canneal_big2.champsimtrace")
*** Reached end of trace: (2, "traces/canneal_big2.champsimtrace")
*** Reached end of trace: (12, "traces/canneal_big2.champsimtrace")
*** Reached end of trace: (9, "traces/canneal_big4.champsimtrace")
*** Reached end of trace: (4, "traces/canneal_big4.champsimtrace")
*** Reached end of trace: (14, "traces/canneal_big4.champsimtrace")
*** Reached end of trace: (8, "traces/canneal_big3.champsimtrace")
*** Reached end of trace: (13, "traces/canneal_big3.champsimtrace")
*** Reached end of trace: (3, "traces/canneal_big3.champsimtrace")
*** Reached end of trace: (15, "traces/canneal_big0.champsimtrace")
*** Reached end of trace: (0, "traces/canneal_big0.champsimtrace")
*** Reached end of trace: (10, "traces/canneal_big0.champsimtrace")
*** Reached end of trace: (5, "traces/canneal_big0.champsimtrace")
*** Reached end of trace: (7, "traces/canneal_big2.champsimtrace")
*** Reached end of trace: (2, "traces/canneal_big2.champsimtrace")
*** Reached end of trace: (12, "traces/canneal_big2.champsimtrace")
*** Reached end of trace: (9, "traces/canneal_big4.champsimtrace")
*** Reached end of trace: (14, "traces/canneal_big4.champsimtrace")
*** Reached end of trace: (4, "traces/canneal_big4.champsimtrace")
*** Reached end of trace: (8, "traces/canneal_big3.champsimtrace")
*** Reached end of trace: (13, "traces/canneal_big3.champsimtrace")
*** Reached end of trace: (3, "traces/canneal_big3.champsimtrace")
Heartbeat CPU 7 instructions: 150000001 cycles: 37505205 heartbeat IPC: 4 cumulative IPC: 4 (Simulation time: 04 hr 09 min 30 sec)
Heartbeat CPU 2 instructions: 150000001 cycles: 37505211 heartbeat IPC: 4 cumulative IPC: 4 (Simulation time: 04 hr 09 min 30 sec)
Heartbeat CPU 12 instructions: 150000001 cycles: 37505220 heartbeat IPC: 4 cumulative IPC: 4 (Simulation time: 04 hr 09 min 30 sec)
Heartbeat CPU 9 instructions: 150000000 cycles: 37505239 heartbeat IPC: 4 cumulative IPC: 4 (Simulation time: 04 hr 09 min 30 sec)
Heartbeat CPU 14 instructions: 150000001 cycles: 37505247 heartbeat IPC: 4 cumulative IPC: 4 (Simulation time: 04 hr 09 min 30 sec)
Heartbeat CPU 4 instructions: 150000003 cycles: 37505248 heartbeat IPC: 4 cumulative IPC: 4 (Simulation time: 04 hr 09 min 30 sec)
Heartbeat CPU 8 instructions: 150000002 cycles: 37505259 heartbeat IPC: 4 cumulative IPC: 4 (Simulation time: 04 hr 09 min 30 sec)
Heartbeat CPU 13 instructions: 150000001 cycles: 37505263 heartbeat IPC: 4 cumulative IPC: 4 (Simulation time: 04 hr 09 min 30 sec)
Heartbeat CPU 3 instructions: 150000001 cycles: 37505264 heartbeat IPC: 4 cumulative IPC: 4 (Simulation time: 04 hr 09 min 30 sec)
*** Reached end of trace: (7, "traces/canneal_big2.champsimtrace")
*** Reached end of trace: (2, "traces/canneal_big2.champsimtrace")
*** Reached end of trace: (12, "traces/canneal_big2.champsimtrace")
*** Reached end of trace: (9, "traces/canneal_big4.champsimtrace")
*** Reached end of trace: (14, "traces/canneal_big4.champsimtrace")
*** Reached end of trace: (4, "traces/canneal_big4.champsimtrace")
*** Reached end of trace: (8, "traces/canneal_big3.champsimtrace")
*** Reached end of trace: (13, "traces/canneal_big3.champsimtrace")
*** Reached end of trace: (3, "traces/canneal_big3.champsimtrace")
*** Reached end of trace: (7, "traces/canneal_big2.champsimtrace")
*** Reached end of trace: (2, "traces/canneal_big2.champsimtrace")
*** Reached end of trace: (12, "traces/canneal_big2.champsimtrace")
*** Reached end of trace: (9, "traces/canneal_big4.champsimtrace")
*** Reached end of trace: (4, "traces/canneal_big4.champsimtrace")
*** Reached end of trace: (14, "traces/canneal_big4.champsimtrace")
*** Reached end of trace: (8, "traces/canneal_big3.champsimtrace")
*** Reached end of trace: (13, "traces/canneal_big3.champsimtrace")
*** Reached end of trace: (3, "traces/canneal_big3.champsimtrace")
Heartbeat CPU 7 instructions: 160000001 cycles: 40005205 heartbeat IPC: 4 cumulative IPC: 4 (Simulation time: 04 hr 24 min 42 sec)
Heartbeat CPU 2 instructions: 160000001 cycles: 40005211 heartbeat IPC: 4 cumulative IPC: 4 (Simulation time: 04 hr 24 min 42 sec)
Heartbeat CPU 12 instructions: 160000001 cycles: 40005220 heartbeat IPC: 4 cumulative IPC: 4 (Simulation time: 04 hr 24 min 42 sec)
Heartbeat CPU 9 instructions: 160000000 cycles: 40005239 heartbeat IPC: 4 cumulative IPC: 4 (Simulation time: 04 hr 24 min 42 sec)
Heartbeat CPU 14 instructions: 160000001 cycles: 40005247 heartbeat IPC: 4 cumulative IPC: 4 (Simulation time: 04 hr 24 min 42 sec)
Heartbeat CPU 4 instructions: 160000003 cycles: 40005248 heartbeat IPC: 4 cumulative IPC: 4 (Simulation time: 04 hr 24 min 42 sec)
Heartbeat CPU 8 instructions: 160000002 cycles: 40005259 heartbeat IPC: 4 cumulative IPC: 4 (Simulation time: 04 hr 24 min 42 sec)
Heartbeat CPU 13 instructions: 160000001 cycles: 40005263 heartbeat IPC: 4 cumulative IPC: 4 (Simulation time: 04 hr 24 min 42 sec)
Heartbeat CPU 3 instructions: 160000001 cycles: 40005264 heartbeat IPC: 4 cumulative IPC: 4 (Simulation time: 04 hr 24 min 42 sec)
*** Reached end of trace: (7, "traces/canneal_big2.champsimtrace")
*** Reached end of trace: (2, "traces/canneal_big2.champsimtrace")
*** Reached end of trace: (12, "traces/canneal_big2.champsimtrace")
*** Reached end of trace: (9, "traces/canneal_big4.champsimtrace")
*** Reached end of trace: (4, "traces/canneal_big4.champsimtrace")
*** Reached end of trace: (14, "traces/canneal_big4.champsimtrace")
*** Reached end of trace: (8, "traces/canneal_big3.champsimtrace")
*** Reached end of trace: (13, "traces/canneal_big3.champsimtrace")
*** Reached end of trace: (3, "traces/canneal_big3.champsimtrace")
*** Reached end of trace: (7, "traces/canneal_big2.champsimtrace")
*** Reached end of trace: (2, "traces/canneal_big2.champsimtrace")
*** Reached end of trace: (12, "traces/canneal_big2.champsimtrace")
*** Reached end of trace: (9, "traces/canneal_big4.champsimtrace")
*** Reached end of trace: (14, "traces/canneal_big4.champsimtrace")
*** Reached end of trace: (4, "traces/canneal_big4.champsimtrace")
*** Reached end of trace: (8, "traces/canneal_big3.champsimtrace")
*** Reached end of trace: (13, "traces/canneal_big3.champsimtrace")
*** Reached end of trace: (3, "traces/canneal_big3.champsimtrace")
Heartbeat CPU 7 instructions: 170000001 cycles: 42505205 heartbeat IPC: 4 cumulative IPC: 4 (Simulation time: 04 hr 39 min 40 sec)
Heartbeat CPU 2 instructions: 170000001 cycles: 42505211 heartbeat IPC: 4 cumulative IPC: 4 (Simulation time: 04 hr 39 min 40 sec)
Heartbeat CPU 12 instructions: 170000001 cycles: 42505220 heartbeat IPC: 4 cumulative IPC: 4 (Simulation time: 04 hr 39 min 40 sec)
Heartbeat CPU 9 instructions: 170000000 cycles: 42505239 heartbeat IPC: 4 cumulative IPC: 4 (Simulation time: 04 hr 39 min 40 sec)
Heartbeat CPU 14 instructions: 170000001 cycles: 42505247 heartbeat IPC: 4 cumulative IPC: 4 (Simulation time: 04 hr 39 min 40 sec)
Heartbeat CPU 4 instructions: 170000003 cycles: 42505248 heartbeat IPC: 4 cumulative IPC: 4 (Simulation time: 04 hr 39 min 40 sec)
Heartbeat CPU 8 instructions: 170000002 cycles: 42505259 heartbeat IPC: 4 cumulative IPC: 4 (Simulation time: 04 hr 39 min 40 sec)
Heartbeat CPU 13 instructions: 170000001 cycles: 42505263 heartbeat IPC: 4 cumulative IPC: 4 (Simulation time: 04 hr 39 min 40 sec)
Heartbeat CPU 3 instructions: 170000001 cycles: 42505264 heartbeat IPC: 4 cumulative IPC: 4 (Simulation time: 04 hr 39 min 40 sec)
*** Reached end of trace: (0, "traces/canneal_big0.champsimtrace")
Heartbeat CPU 0 instructions: 90000024 cycles: 42599914 heartbeat IPC: 0.882 cumulative IPC: 0.8895 (Simulation time: 04 hr 40 min 15 sec)
*** Reached end of trace: (15, "traces/canneal_big0.champsimtrace")
Heartbeat CPU 15 instructions: 90000022 cycles: 42605001 heartbeat IPC: 0.8816 cumulative IPC: 0.8892 (Simulation time: 04 hr 40 min 17 sec)
*** Reached end of trace: (10, "traces/canneal_big0.champsimtrace")
Heartbeat CPU 10 instructions: 90000024 cycles: 42666501 heartbeat IPC: 0.8773 cumulative IPC: 0.8847 (Simulation time: 04 hr 40 min 38 sec)
*** Reached end of trace: (5, "traces/canneal_big0.champsimtrace")
Heartbeat CPU 5 instructions: 90000024 cycles: 42856517 heartbeat IPC: 0.8696 cumulative IPC: 0.8837 (Simulation time: 04 hr 41 min 47 sec)
*** Reached end of trace: (7, "traces/canneal_big2.champsimtrace")
*** Reached end of trace: (2, "traces/canneal_big2.champsimtrace")
*** Reached end of trace: (12, "traces/canneal_big2.champsimtrace")
*** Reached end of trace: (9, "traces/canneal_big4.champsimtrace")
*** Reached end of trace: (14, "traces/canneal_big4.champsimtrace")
*** Reached end of trace: (4, "traces/canneal_big4.champsimtrace")
*** Reached end of trace: (8, "traces/canneal_big3.champsimtrace")
*** Reached end of trace: (13, "traces/canneal_big3.champsimtrace")
*** Reached end of trace: (3, "traces/canneal_big3.champsimtrace")
*** Reached end of trace: (7, "traces/canneal_big2.champsimtrace")
*** Reached end of trace: (2, "traces/canneal_big2.champsimtrace")
*** Reached end of trace: (12, "traces/canneal_big2.champsimtrace")
*** Reached end of trace: (9, "traces/canneal_big4.champsimtrace")
*** Reached end of trace: (4, "traces/canneal_big4.champsimtrace")
*** Reached end of trace: (14, "traces/canneal_big4.champsimtrace")
*** Reached end of trace: (8, "traces/canneal_big3.champsimtrace")
*** Reached end of trace: (13, "traces/canneal_big3.champsimtrace")
*** Reached end of trace: (3, "traces/canneal_big3.champsimtrace")
Heartbeat CPU 7 instructions: 180000001 cycles: 45005205 heartbeat IPC: 4 cumulative IPC: 4 (Simulation time: 04 hr 54 min 42 sec)
Heartbeat CPU 2 instructions: 180000001 cycles: 45005211 heartbeat IPC: 4 cumulative IPC: 4 (Simulation time: 04 hr 54 min 42 sec)
Heartbeat CPU 12 instructions: 180000001 cycles: 45005220 heartbeat IPC: 4 cumulative IPC: 4 (Simulation time: 04 hr 54 min 42 sec)
Heartbeat CPU 9 instructions: 180000000 cycles: 45005239 heartbeat IPC: 4 cumulative IPC: 4 (Simulation time: 04 hr 54 min 42 sec)
Heartbeat CPU 14 instructions: 180000001 cycles: 45005247 heartbeat IPC: 4 cumulative IPC: 4 (Simulation time: 04 hr 54 min 42 sec)
Heartbeat CPU 4 instructions: 180000003 cycles: 45005248 heartbeat IPC: 4 cumulative IPC: 4 (Simulation time: 04 hr 54 min 42 sec)
Heartbeat CPU 8 instructions: 180000002 cycles: 45005259 heartbeat IPC: 4 cumulative IPC: 4 (Simulation time: 04 hr 54 min 42 sec)
Heartbeat CPU 13 instructions: 180000001 cycles: 45005263 heartbeat IPC: 4 cumulative IPC: 4 (Simulation time: 04 hr 54 min 42 sec)
Heartbeat CPU 3 instructions: 180000001 cycles: 45005264 heartbeat IPC: 4 cumulative IPC: 4 (Simulation time: 04 hr 54 min 42 sec)
*** Reached end of trace: (7, "traces/canneal_big2.champsimtrace")
*** Reached end of trace: (2, "traces/canneal_big2.champsimtrace")
*** Reached end of trace: (12, "traces/canneal_big2.champsimtrace")
*** Reached end of trace: (9, "traces/canneal_big4.champsimtrace")
*** Reached end of trace: (4, "traces/canneal_big4.champsimtrace")
*** Reached end of trace: (14, "traces/canneal_big4.champsimtrace")
*** Reached end of trace: (8, "traces/canneal_big3.champsimtrace")
*** Reached end of trace: (13, "traces/canneal_big3.champsimtrace")
*** Reached end of trace: (3, "traces/canneal_big3.champsimtrace")
*** Reached end of trace: (7, "traces/canneal_big2.champsimtrace")
*** Reached end of trace: (2, "traces/canneal_big2.champsimtrace")
*** Reached end of trace: (12, "traces/canneal_big2.champsimtrace")
*** Reached end of trace: (9, "traces/canneal_big4.champsimtrace")
*** Reached end of trace: (14, "traces/canneal_big4.champsimtrace")
*** Reached end of trace: (4, "traces/canneal_big4.champsimtrace")
*** Reached end of trace: (8, "traces/canneal_big3.champsimtrace")
*** Reached end of trace: (13, "traces/canneal_big3.champsimtrace")
*** Reached end of trace: (3, "traces/canneal_big3.champsimtrace")
Heartbeat CPU 7 instructions: 190000001 cycles: 47505205 heartbeat IPC: 4 cumulative IPC: 4 (Simulation time: 05 hr 09 min 30 sec)
Heartbeat CPU 2 instructions: 190000001 cycles: 47505211 heartbeat IPC: 4 cumulative IPC: 4 (Simulation time: 05 hr 09 min 30 sec)
Heartbeat CPU 12 instructions: 190000001 cycles: 47505220 heartbeat IPC: 4 cumulative IPC: 4 (Simulation time: 05 hr 09 min 30 sec)
Heartbeat CPU 9 instructions: 190000000 cycles: 47505239 heartbeat IPC: 4 cumulative IPC: 4 (Simulation time: 05 hr 09 min 30 sec)
Heartbeat CPU 14 instructions: 190000001 cycles: 47505247 heartbeat IPC: 4 cumulative IPC: 4 (Simulation time: 05 hr 09 min 30 sec)
Heartbeat CPU 4 instructions: 190000003 cycles: 47505248 heartbeat IPC: 4 cumulative IPC: 4 (Simulation time: 05 hr 09 min 30 sec)
Heartbeat CPU 8 instructions: 190000002 cycles: 47505259 heartbeat IPC: 4 cumulative IPC: 4 (Simulation time: 05 hr 09 min 30 sec)
Heartbeat CPU 13 instructions: 190000001 cycles: 47505263 heartbeat IPC: 4 cumulative IPC: 4 (Simulation time: 05 hr 09 min 30 sec)
Heartbeat CPU 3 instructions: 190000001 cycles: 47505264 heartbeat IPC: 4 cumulative IPC: 4 (Simulation time: 05 hr 09 min 30 sec)
*** Reached end of trace: (0, "traces/canneal_big0.champsimtrace")
*** Reached end of trace: (15, "traces/canneal_big0.champsimtrace")
*** Reached end of trace: (10, "traces/canneal_big0.champsimtrace")
*** Reached end of trace: (5, "traces/canneal_big0.champsimtrace")
*** Reached end of trace: (7, "traces/canneal_big2.champsimtrace")
*** Reached end of trace: (2, "traces/canneal_big2.champsimtrace")
*** Reached end of trace: (12, "traces/canneal_big2.champsimtrace")
*** Reached end of trace: (9, "traces/canneal_big4.champsimtrace")
*** Reached end of trace: (14, "traces/canneal_big4.champsimtrace")
*** Reached end of trace: (4, "traces/canneal_big4.champsimtrace")
*** Reached end of trace: (8, "traces/canneal_big3.champsimtrace")
*** Reached end of trace: (13, "traces/canneal_big3.champsimtrace")
*** Reached end of trace: (3, "traces/canneal_big3.champsimtrace")
*** Reached end of trace: (7, "traces/canneal_big2.champsimtrace")
*** Reached end of trace: (2, "traces/canneal_big2.champsimtrace")
*** Reached end of trace: (12, "traces/canneal_big2.champsimtrace")
*** Reached end of trace: (9, "traces/canneal_big4.champsimtrace")
*** Reached end of trace: (4, "traces/canneal_big4.champsimtrace")
*** Reached end of trace: (14, "traces/canneal_big4.champsimtrace")
*** Reached end of trace: (8, "traces/canneal_big3.champsimtrace")
*** Reached end of trace: (13, "traces/canneal_big3.champsimtrace")
*** Reached end of trace: (3, "traces/canneal_big3.champsimtrace")
Heartbeat CPU 7 instructions: 200000001 cycles: 50005205 heartbeat IPC: 4 cumulative IPC: 4 (Simulation time: 05 hr 23 min 59 sec)
Heartbeat CPU 2 instructions: 200000001 cycles: 50005211 heartbeat IPC: 4 cumulative IPC: 4 (Simulation time: 05 hr 23 min 59 sec)
Heartbeat CPU 12 instructions: 200000001 cycles: 50005220 heartbeat IPC: 4 cumulative IPC: 4 (Simulation time: 05 hr 23 min 59 sec)
Heartbeat CPU 9 instructions: 200000000 cycles: 50005239 heartbeat IPC: 4 cumulative IPC: 4 (Simulation time: 05 hr 23 min 59 sec)
Heartbeat CPU 14 instructions: 200000001 cycles: 50005247 heartbeat IPC: 4 cumulative IPC: 4 (Simulation time: 05 hr 23 min 59 sec)
Heartbeat CPU 4 instructions: 200000003 cycles: 50005248 heartbeat IPC: 4 cumulative IPC: 4 (Simulation time: 05 hr 23 min 59 sec)
Heartbeat CPU 8 instructions: 200000002 cycles: 50005259 heartbeat IPC: 4 cumulative IPC: 4 (Simulation time: 05 hr 23 min 59 sec)
Heartbeat CPU 13 instructions: 200000001 cycles: 50005263 heartbeat IPC: 4 cumulative IPC: 4 (Simulation time: 05 hr 23 min 59 sec)
Heartbeat CPU 3 instructions: 200000001 cycles: 50005264 heartbeat IPC: 4 cumulative IPC: 4 (Simulation time: 05 hr 23 min 59 sec)
*** Reached end of trace: (7, "traces/canneal_big2.champsimtrace")
*** Reached end of trace: (2, "traces/canneal_big2.champsimtrace")
*** Reached end of trace: (12, "traces/canneal_big2.champsimtrace")
*** Reached end of trace: (9, "traces/canneal_big4.champsimtrace")
*** Reached end of trace: (4, "traces/canneal_big4.champsimtrace")
*** Reached end of trace: (14, "traces/canneal_big4.champsimtrace")
*** Reached end of trace: (8, "traces/canneal_big3.champsimtrace")
*** Reached end of trace: (13, "traces/canneal_big3.champsimtrace")
*** Reached end of trace: (3, "traces/canneal_big3.champsimtrace")
*** Reached end of trace: (7, "traces/canneal_big2.champsimtrace")
*** Reached end of trace: (2, "traces/canneal_big2.champsimtrace")
*** Reached end of trace: (12, "traces/canneal_big2.champsimtrace")
*** Reached end of trace: (9, "traces/canneal_big4.champsimtrace")
*** Reached end of trace: (14, "traces/canneal_big4.champsimtrace")
*** Reached end of trace: (4, "traces/canneal_big4.champsimtrace")
*** Reached end of trace: (8, "traces/canneal_big3.champsimtrace")
*** Reached end of trace: (13, "traces/canneal_big3.champsimtrace")
*** Reached end of trace: (3, "traces/canneal_big3.champsimtrace")
Heartbeat CPU 7 instructions: 210000001 cycles: 52505205 heartbeat IPC: 4 cumulative IPC: 4 (Simulation time: 05 hr 38 min 19 sec)
Heartbeat CPU 2 instructions: 210000001 cycles: 52505211 heartbeat IPC: 4 cumulative IPC: 4 (Simulation time: 05 hr 38 min 19 sec)
Heartbeat CPU 12 instructions: 210000001 cycles: 52505220 heartbeat IPC: 4 cumulative IPC: 4 (Simulation time: 05 hr 38 min 19 sec)
Heartbeat CPU 9 instructions: 210000000 cycles: 52505239 heartbeat IPC: 4 cumulative IPC: 4 (Simulation time: 05 hr 38 min 19 sec)
Heartbeat CPU 14 instructions: 210000001 cycles: 52505247 heartbeat IPC: 4 cumulative IPC: 4 (Simulation time: 05 hr 38 min 19 sec)
Heartbeat CPU 4 instructions: 210000003 cycles: 52505248 heartbeat IPC: 4 cumulative IPC: 4 (Simulation time: 05 hr 38 min 19 sec)
Heartbeat CPU 8 instructions: 210000002 cycles: 52505259 heartbeat IPC: 4 cumulative IPC: 4 (Simulation time: 05 hr 38 min 19 sec)
Heartbeat CPU 13 instructions: 210000001 cycles: 52505263 heartbeat IPC: 4 cumulative IPC: 4 (Simulation time: 05 hr 38 min 19 sec)
Heartbeat CPU 3 instructions: 210000001 cycles: 52505264 heartbeat IPC: 4 cumulative IPC: 4 (Simulation time: 05 hr 38 min 19 sec)
*** Reached end of trace: (7, "traces/canneal_big2.champsimtrace")
*** Reached end of trace: (2, "traces/canneal_big2.champsimtrace")
*** Reached end of trace: (12, "traces/canneal_big2.champsimtrace")
*** Reached end of trace: (9, "traces/canneal_big4.champsimtrace")
*** Reached end of trace: (14, "traces/canneal_big4.champsimtrace")
*** Reached end of trace: (4, "traces/canneal_big4.champsimtrace")
*** Reached end of trace: (8, "traces/canneal_big3.champsimtrace")
*** Reached end of trace: (13, "traces/canneal_big3.champsimtrace")
*** Reached end of trace: (3, "traces/canneal_big3.champsimtrace")
*** Reached end of trace: (0, "traces/canneal_big0.champsimtrace")
Heartbeat CPU 0 instructions: 100000025 cycles: 53885483 heartbeat IPC: 0.8861 cumulative IPC: 0.8879 (Simulation time: 05 hr 46 min 12 sec)
*** Reached end of trace: (15, "traces/canneal_big0.champsimtrace")
Heartbeat CPU 15 instructions: 100000022 cycles: 54009740 heartbeat IPC: 0.8768 cumulative IPC: 0.8831 (Simulation time: 05 hr 46 min 52 sec)
*** Reached end of trace: (10, "traces/canneal_big0.champsimtrace")
Heartbeat CPU 10 instructions: 100000027 cycles: 54061902 heartbeat IPC: 0.8775 cumulative IPC: 0.8812 (Simulation time: 05 hr 47 min 08 sec)
*** Reached end of trace: (5, "traces/canneal_big0.champsimtrace")
Heartbeat CPU 5 instructions: 100000025 cycles: 54279304 heartbeat IPC: 0.8754 cumulative IPC: 0.8797 (Simulation time: 05 hr 48 min 24 sec)
*** Reached end of trace: (7, "traces/canneal_big2.champsimtrace")
*** Reached end of trace: (2, "traces/canneal_big2.champsimtrace")
*** Reached end of trace: (12, "traces/canneal_big2.champsimtrace")
*** Reached end of trace: (9, "traces/canneal_big4.champsimtrace")
*** Reached end of trace: (4, "traces/canneal_big4.champsimtrace")
*** Reached end of trace: (14, "traces/canneal_big4.champsimtrace")
*** Reached end of trace: (8, "traces/canneal_big3.champsimtrace")
*** Reached end of trace: (13, "traces/canneal_big3.champsimtrace")
*** Reached end of trace: (3, "traces/canneal_big3.champsimtrace")
Heartbeat CPU 7 instructions: 220000001 cycles: 55005205 heartbeat IPC: 4 cumulative IPC: 4 (Simulation time: 05 hr 52 min 53 sec)
Heartbeat CPU 2 instructions: 220000001 cycles: 55005211 heartbeat IPC: 4 cumulative IPC: 4 (Simulation time: 05 hr 52 min 53 sec)
Heartbeat CPU 12 instructions: 220000001 cycles: 55005220 heartbeat IPC: 4 cumulative IPC: 4 (Simulation time: 05 hr 52 min 53 sec)
Heartbeat CPU 9 instructions: 220000000 cycles: 55005239 heartbeat IPC: 4 cumulative IPC: 4 (Simulation time: 05 hr 52 min 53 sec)
Heartbeat CPU 14 instructions: 220000001 cycles: 55005247 heartbeat IPC: 4 cumulative IPC: 4 (Simulation time: 05 hr 52 min 53 sec)
Heartbeat CPU 4 instructions: 220000003 cycles: 55005248 heartbeat IPC: 4 cumulative IPC: 4 (Simulation time: 05 hr 52 min 53 sec)
Heartbeat CPU 8 instructions: 220000002 cycles: 55005259 heartbeat IPC: 4 cumulative IPC: 4 (Simulation time: 05 hr 52 min 53 sec)
Heartbeat CPU 13 instructions: 220000001 cycles: 55005263 heartbeat IPC: 4 cumulative IPC: 4 (Simulation time: 05 hr 52 min 53 sec)
Heartbeat CPU 3 instructions: 220000001 cycles: 55005264 heartbeat IPC: 4 cumulative IPC: 4 (Simulation time: 05 hr 52 min 53 sec)
Simulation finished CPU 9 instructions: 100000000 cycles: 25000000 cumulative IPC: 4 (Simulation time: 05 hr 57 min 28 sec)
Simulation finished CPU 8 instructions: 100000000 cycles: 25000000 cumulative IPC: 4 (Simulation time: 05 hr 57 min 28 sec)
Simulation finished CPU 7 instructions: 100000000 cycles: 25000000 cumulative IPC: 4 (Simulation time: 05 hr 57 min 28 sec)
Simulation finished CPU 4 instructions: 100000000 cycles: 25000000 cumulative IPC: 4 (Simulation time: 05 hr 57 min 28 sec)
Simulation finished CPU 3 instructions: 100000000 cycles: 25000000 cumulative IPC: 4 (Simulation time: 05 hr 57 min 28 sec)
Simulation finished CPU 2 instructions: 100000000 cycles: 25000000 cumulative IPC: 4 (Simulation time: 05 hr 57 min 28 sec)
Simulation finished CPU 14 instructions: 100000000 cycles: 25000000 cumulative IPC: 4 (Simulation time: 05 hr 57 min 28 sec)
Simulation finished CPU 13 instructions: 100000000 cycles: 25000000 cumulative IPC: 4 (Simulation time: 05 hr 57 min 28 sec)
Simulation finished CPU 12 instructions: 100000000 cycles: 25000000 cumulative IPC: 4 (Simulation time: 05 hr 57 min 28 sec)
*** Reached end of trace: (7, "traces/canneal_big2.champsimtrace")
*** Reached end of trace: (2, "traces/canneal_big2.champsimtrace")
*** Reached end of trace: (12, "traces/canneal_big2.champsimtrace")
*** Reached end of trace: (9, "traces/canneal_big4.champsimtrace")
*** Reached end of trace: (4, "traces/canneal_big4.champsimtrace")
*** Reached end of trace: (14, "traces/canneal_big4.champsimtrace")
*** Reached end of trace: (8, "traces/canneal_big3.champsimtrace")
*** Reached end of trace: (13, "traces/canneal_big3.champsimtrace")
*** Reached end of trace: (3, "traces/canneal_big3.champsimtrace")
*** Reached end of trace: (7, "traces/canneal_big2.champsimtrace")
*** Reached end of trace: (2, "traces/canneal_big2.champsimtrace")
*** Reached end of trace: (12, "traces/canneal_big2.champsimtrace")
*** Reached end of trace: (9, "traces/canneal_big4.champsimtrace")
*** Reached end of trace: (14, "traces/canneal_big4.champsimtrace")
*** Reached end of trace: (4, "traces/canneal_big4.champsimtrace")
*** Reached end of trace: (8, "traces/canneal_big3.champsimtrace")
*** Reached end of trace: (13, "traces/canneal_big3.champsimtrace")
*** Reached end of trace: (3, "traces/canneal_big3.champsimtrace")
Heartbeat CPU 7 instructions: 230000001 cycles: 57505205 heartbeat IPC: 4 cumulative IPC: 4 (Simulation time: 06 hr 07 min 40 sec)
Heartbeat CPU 2 instructions: 230000001 cycles: 57505211 heartbeat IPC: 4 cumulative IPC: 4 (Simulation time: 06 hr 07 min 40 sec)
Heartbeat CPU 12 instructions: 230000001 cycles: 57505220 heartbeat IPC: 4 cumulative IPC: 4 (Simulation time: 06 hr 07 min 40 sec)
Heartbeat CPU 9 instructions: 230000000 cycles: 57505239 heartbeat IPC: 4 cumulative IPC: 4 (Simulation time: 06 hr 07 min 40 sec)
Heartbeat CPU 14 instructions: 230000001 cycles: 57505247 heartbeat IPC: 4 cumulative IPC: 4 (Simulation time: 06 hr 07 min 40 sec)
Heartbeat CPU 4 instructions: 230000003 cycles: 57505248 heartbeat IPC: 4 cumulative IPC: 4 (Simulation time: 06 hr 07 min 40 sec)
Heartbeat CPU 8 instructions: 230000002 cycles: 57505259 heartbeat IPC: 4 cumulative IPC: 4 (Simulation time: 06 hr 07 min 40 sec)
Heartbeat CPU 13 instructions: 230000001 cycles: 57505263 heartbeat IPC: 4 cumulative IPC: 4 (Simulation time: 06 hr 07 min 40 sec)
Heartbeat CPU 3 instructions: 230000001 cycles: 57505264 heartbeat IPC: 4 cumulative IPC: 4 (Simulation time: 06 hr 07 min 40 sec)
*** Reached end of trace: (7, "traces/canneal_big2.champsimtrace")
*** Reached end of trace: (2, "traces/canneal_big2.champsimtrace")
*** Reached end of trace: (12, "traces/canneal_big2.champsimtrace")
*** Reached end of trace: (9, "traces/canneal_big4.champsimtrace")
*** Reached end of trace: (14, "traces/canneal_big4.champsimtrace")
*** Reached end of trace: (4, "traces/canneal_big4.champsimtrace")
*** Reached end of trace: (8, "traces/canneal_big3.champsimtrace")
*** Reached end of trace: (13, "traces/canneal_big3.champsimtrace")
*** Reached end of trace: (3, "traces/canneal_big3.champsimtrace")
*** Reached end of trace: (0, "traces/canneal_big0.champsimtrace")
*** Reached end of trace: (15, "traces/canneal_big0.champsimtrace")
*** Reached end of trace: (10, "traces/canneal_big0.champsimtrace")
*** Reached end of trace: (5, "traces/canneal_big0.champsimtrace")
*** Reached end of trace: (7, "traces/canneal_big2.champsimtrace")
*** Reached end of trace: (2, "traces/canneal_big2.champsimtrace")
*** Reached end of trace: (12, "traces/canneal_big2.champsimtrace")
*** Reached end of trace: (9, "traces/canneal_big4.champsimtrace")
*** Reached end of trace: (4, "traces/canneal_big4.champsimtrace")
*** Reached end of trace: (14, "traces/canneal_big4.champsimtrace")
*** Reached end of trace: (8, "traces/canneal_big3.champsimtrace")
*** Reached end of trace: (13, "traces/canneal_big3.champsimtrace")
*** Reached end of trace: (3, "traces/canneal_big3.champsimtrace")
Heartbeat CPU 7 instructions: 240000001 cycles: 60005205 heartbeat IPC: 4 cumulative IPC: 4 (Simulation time: 06 hr 23 min 56 sec)
Heartbeat CPU 2 instructions: 240000001 cycles: 60005211 heartbeat IPC: 4 cumulative IPC: 4 (Simulation time: 06 hr 23 min 56 sec)
Heartbeat CPU 12 instructions: 240000001 cycles: 60005220 heartbeat IPC: 4 cumulative IPC: 4 (Simulation time: 06 hr 23 min 56 sec)
Heartbeat CPU 9 instructions: 240000000 cycles: 60005239 heartbeat IPC: 4 cumulative IPC: 4 (Simulation time: 06 hr 23 min 56 sec)
Heartbeat CPU 14 instructions: 240000001 cycles: 60005247 heartbeat IPC: 4 cumulative IPC: 4 (Simulation time: 06 hr 23 min 56 sec)
Heartbeat CPU 4 instructions: 240000003 cycles: 60005248 heartbeat IPC: 4 cumulative IPC: 4 (Simulation time: 06 hr 23 min 56 sec)
Heartbeat CPU 8 instructions: 240000002 cycles: 60005259 heartbeat IPC: 4 cumulative IPC: 4 (Simulation time: 06 hr 23 min 56 sec)
Heartbeat CPU 13 instructions: 240000001 cycles: 60005263 heartbeat IPC: 4 cumulative IPC: 4 (Simulation time: 06 hr 23 min 56 sec)
Heartbeat CPU 3 instructions: 240000001 cycles: 60005264 heartbeat IPC: 4 cumulative IPC: 4 (Simulation time: 06 hr 23 min 56 sec)
*** Reached end of trace: (7, "traces/canneal_big2.champsimtrace")
*** Reached end of trace: (2, "traces/canneal_big2.champsimtrace")
*** Reached end of trace: (12, "traces/canneal_big2.champsimtrace")
*** Reached end of trace: (9, "traces/canneal_big4.champsimtrace")
*** Reached end of trace: (4, "traces/canneal_big4.champsimtrace")
*** Reached end of trace: (14, "traces/canneal_big4.champsimtrace")
*** Reached end of trace: (8, "traces/canneal_big3.champsimtrace")
*** Reached end of trace: (13, "traces/canneal_big3.champsimtrace")
*** Reached end of trace: (3, "traces/canneal_big3.champsimtrace")
*** Reached end of trace: (7, "traces/canneal_big2.champsimtrace")
*** Reached end of trace: (2, "traces/canneal_big2.champsimtrace")
*** Reached end of trace: (12, "traces/canneal_big2.champsimtrace")
*** Reached end of trace: (9, "traces/canneal_big4.champsimtrace")
*** Reached end of trace: (14, "traces/canneal_big4.champsimtrace")
*** Reached end of trace: (4, "traces/canneal_big4.champsimtrace")
*** Reached end of trace: (8, "traces/canneal_big3.champsimtrace")
*** Reached end of trace: (13, "traces/canneal_big3.champsimtrace")
*** Reached end of trace: (3, "traces/canneal_big3.champsimtrace")
Heartbeat CPU 7 instructions: 250000001 cycles: 62505205 heartbeat IPC: 4 cumulative IPC: 4 (Simulation time: 06 hr 40 min 38 sec)
Heartbeat CPU 2 instructions: 250000001 cycles: 62505211 heartbeat IPC: 4 cumulative IPC: 4 (Simulation time: 06 hr 40 min 38 sec)
[...]
cpu12->cpu12_ITLB TRANSLATION  ACCESS:          0 HIT:          0 MISS:          0 MSHR_MERGE:          0
cpu12->cpu12_ITLB PREFETCH REQUESTED:          0 ISSUED:          0 USEFUL:          0 USELESS:          0
cpu12->cpu12_ITLB AVERAGE MISS LATENCY: - cycles
cpu12_ITLB COHERENCE INVALIDATIONS:          0
cpu12_DTLB COHERENCE INVALIDATIONS:          0
cpu11->cpu11_STLB TOTAL        ACCESS:    2222031 HIT:    2025683 MISS:     196348 MSHR_MERGE:          0
cpu11->cpu11_STLB LOAD         ACCESS:    2222031 HIT:    2025683 MISS:     196348 MSHR_MERGE:          0
cpu11->cpu11_STLB RFO          ACCESS:          0 HIT:          0 MISS:          0 MSHR_MERGE:          0
cpu11->cpu11_STLB PREFETCH     ACCESS:          0 HIT:          0 MISS:          0 MSHR_MERGE:          0
cpu11->cpu11_STLB WRITE        ACCESS:          0 HIT:          0 MISS:          0 MSHR_MERGE:          0
cpu11->cpu11_STLB TRANSLATION  ACCESS:          0 HIT:          0 MISS:          0 MSHR_MERGE:          0
cpu11->cpu11_STLB PREFETCH REQUESTED:          0 ISSUED:          0 USEFUL:          0 USELESS:          0
cpu11->cpu11_STLB AVERAGE MISS LATENCY: 1901 cycles
cpu11_STLB COHERENCE INVALIDATIONS:          0
cpu11->cpu11_L2C TOTAL        ACCESS:    2354068 HIT:     404229 MISS:    1949839 MSHR_MERGE:          0
cpu11->cpu11_L2C LOAD         ACCESS:    1964989 HIT:     402909 MISS:    1562080 MSHR_MERGE:          0
cpu11->cpu11_L2C RFO          ACCESS:          0 HIT:          0 MISS:          0 MSHR_MERGE:          0
cpu11->cpu11_L2C PREFETCH     ACCESS:          0 HIT:          0 MISS:          0 MSHR_MERGE:          0
cpu11->cpu11_L2C WRITE        ACCESS:          0 HIT:          0 MISS:          0 MSHR_MERGE:          0
cpu11->cpu11_L2C TRANSLATION  ACCESS:     389079 HIT:       1320 MISS:     387759 MSHR_MERGE:          0
cpu11->cpu11_L2C PREFETCH REQUESTED:          0 ISSUED:          0 USEFUL:          0 USELESS:          0
cpu11->cpu11_L2C AVERAGE MISS LATENCY: 968.2 cycles
cpu11_L2C COHERENCE INVALIDATIONS:          0
cpu11->cpu11_L1I TOTAL        ACCESS:   34184980 HIT:   32018811 MISS:    2166169 MSHR_MERGE:     201181
cpu11->cpu11_L1I LOAD         ACCESS:   34184980 HIT:   32018811 MISS:    2166169 MSHR_MERGE:     201181
cpu11->cpu11_L1I RFO          ACCESS:          0 HIT:          0 MISS:          0 MSHR_MERGE:          0
cpu11->cpu11_L1I PREFETCH     ACCESS:          0 HIT:          0 MISS:          0 MSHR_MERGE:          0
cpu11->cpu11_L1I WRITE        ACCESS:          0 HIT:          0 MISS:          0 MSHR_MERGE:          0
cpu11->cpu11_L1I TRANSLATION  ACCESS:          0 HIT:          0 MISS:          0 MSHR_MERGE:          0
cpu11->cpu11_L1I PREFETCH REQUESTED:          0 ISSUED:          0 USEFUL:          0 USELESS:          0
cpu11->cpu11_L1I AVERAGE MISS LATENCY: 781.4 cycles
cpu11_L1I COHERENCE INVALIDATIONS:          0
cpu11->cpu11_L1D TOTAL        ACCESS:     392833 HIT:       3754 MISS:     389079 MSHR_MERGE:          0
cpu11->cpu11_L1D LOAD         ACCESS:          0 HIT:          0 MISS:          0 MSHR_MERGE:          0
cpu11->cpu11_L1D RFO          ACCESS:          0 HIT:          0 MISS:          0 MSHR_MERGE:          0
cpu11->cpu11_L1D PREFETCH     ACCESS:          0 HIT:          0 MISS:          0 MSHR_MERGE:          0
cpu11->cpu11_L1D WRITE        ACCESS:          0 HIT:          0 MISS:          0 MSHR_MERGE:          0
cpu11->cpu11_L1D TRANSLATION  ACCESS:     392833 HIT:       3754 MISS:     389079 MSHR_MERGE:          0
cpu11->cpu11_L1D PREFETCH REQUESTED:          0 ISSUED:          0 USEFUL:          0 USELESS:          0
cpu11->cpu11_L1D AVERAGE MISS LATENCY: 953.4 cycles
cpu11_L1D COHERENCE INVALIDATIONS:          0
cpu11->cpu11_ITLB TOTAL        ACCESS:   33648798 HIT:   31375774 MISS:    2273024 MSHR_MERGE:      50993
cpu11->cpu11_ITLB LOAD         ACCESS:   33648798 HIT:   31375774 MISS:    2273024 MSHR_MERGE:      50993
cpu11->cpu11_ITLB RFO          ACCESS:          0 HIT:          0 MISS:          0 MSHR_MERGE:          0
cpu11->cpu11_ITLB PREFETCH     ACCESS:          0 HIT:          0 MISS:          0 MSHR_MERGE:          0
cpu11->cpu11_ITLB WRITE        ACCESS:          0 HIT:          0 MISS:          0 MSHR_MERGE:          0
cpu11->cpu11_ITLB TRANSLATION  ACCESS:          0 HIT:          0 MISS:          0 MSHR_MERGE:          0
cpu11->cpu11_ITLB PREFETCH REQUESTED:          0 ISSUED:          0 USEFUL:          0 USELESS:          0
cpu11->cpu11_ITLB AVERAGE MISS LATENCY: 172.1 cycles
cpu11_ITLB COHERENCE INVALIDATIONS:          0
cpu11_DTLB COHERENCE INVALIDATIONS:          0
cpu10->cpu10_STLB TOTAL        ACCESS:     393287 HIT:     393287 MISS:          0 MSHR_MERGE:          0
cpu10->cpu10_STLB LOAD         ACCESS:     393287 HIT:     393287 MISS:          0 MSHR_MERGE:          0
cpu10->cpu10_STLB RFO          ACCESS:          0 HIT:          0 MISS:          0 MSHR_MERGE:          0
cpu10->cpu10_STLB PREFETCH     ACCESS:          0 HIT:          0 MISS:          0 MSHR_MERGE:          0
cpu10->cpu10_STLB WRITE        ACCESS:          0 HIT:          0 MISS:          0 MSHR_MERGE:          0
cpu10->cpu10_STLB TRANSLATION  ACCESS:          0 HIT:          0 MISS:          0 MSHR_MERGE:          0
cpu10->cpu10_STLB PREFETCH REQUESTED:          0 ISSUED:          0 USEFUL:          0 USELESS:          0
cpu10->cpu10_STLB AVERAGE MISS LATENCY: - cycles
cpu10_STLB COHERENCE INVALIDATIONS:          0
cpu10->cpu10_L2C TOTAL        ACCESS:   12545600 HIT:    6083997 MISS:    6461603 MSHR_MERGE:          0
cpu10->cpu10_L2C LOAD         ACCESS:    1984171 HIT:     668203 MISS:    1315968 MSHR_MERGE:          0
cpu10->cpu10_L2C RFO          ACCESS:    5242468 HIT:      96833 MISS:    5145635 MSHR_MERGE:          0
cpu10->cpu10_L2C PREFETCH     ACCESS:          0 HIT:          0 MISS:          0 MSHR_MERGE:          0
cpu10->cpu10_L2C WRITE        ACCESS:    5318961 HIT:    5318961 MISS:          0 MSHR_MERGE:          0
cpu10->cpu10_L2C TRANSLATION  ACCESS:          0 HIT:          0 MISS:          0 MSHR_MERGE:          0
cpu10->cpu10_L2C PREFETCH REQUESTED:          0 ISSUED:          0 USEFUL:          0 USELESS:          0
cpu10->cpu10_L2C AVERAGE MISS LATENCY: 1020 cycles
cpu10_L2C COHERENCE INVALIDATIONS:          0
cpu10->cpu10_L1I TOTAL        ACCESS:  175946584 HIT:  175555269 MISS:     391315 MSHR_MERGE:     107123
cpu10->cpu10_L1I LOAD         ACCESS:  175946584 HIT:  175555269 MISS:     391315 MSHR_MERGE:     107123
cpu10->cpu10_L1I RFO          ACCESS:          0 HIT:          0 MISS:          0 MSHR_MERGE:          0
cpu10->cpu10_L1I PREFETCH     ACCESS:          0 HIT:          0 MISS:          0 MSHR_MERGE:          0
cpu10->cpu10_L1I WRITE        ACCESS:          0 HIT:          0 MISS:          0 MSHR_MERGE:          0
cpu10->cpu10_L1I TRANSLATION  ACCESS:          0 HIT:          0 MISS:          0 MSHR_MERGE:          0
cpu10->cpu10_L1I PREFETCH REQUESTED:          0 ISSUED:          0 USEFUL:          0 USELESS:          0
cpu10->cpu10_L1I AVERAGE MISS LATENCY: 857.6 cycles
cpu10_L1I COHERENCE INVALIDATIONS:          0
cpu10->cpu10_L1D TOTAL        ACCESS:  192720163 HIT:  151981185 MISS:   40738978 MSHR_MERGE:   33794098
cpu10->cpu10_L1D LOAD         ACCESS:   21723873 HIT:   18188888 MISS:    3534985 MSHR_MERGE:    1835006
cpu10->cpu10_L1D RFO          ACCESS:          0 HIT:          0 MISS:          0 MSHR_MERGE:          0
cpu10->cpu10_L1D PREFETCH     ACCESS:          0 HIT:          0 MISS:          0 MSHR_MERGE:          0
cpu10->cpu10_L1D WRITE        ACCESS:  170996290 HIT:  133792297 MISS:   37203993 MSHR_MERGE:   31959092
cpu10->cpu10_L1D TRANSLATION  ACCESS:          0 HIT:          0 MISS:          0 MSHR_MERGE:          0
cpu10->cpu10_L1D PREFETCH REQUESTED:          0 ISSUED:          0 USEFUL:          0 USELESS:          0
cpu10->cpu10_L1D AVERAGE MISS LATENCY: 922.1 cycles
cpu10_L1D COHERENCE INVALIDATIONS:          0
cpu10->cpu10_ITLB TOTAL        ACCESS:  146492008 HIT:  146433142 MISS:      58866 MSHR_MERGE:      23063
cpu10->cpu10_ITLB LOAD         ACCESS:  146492008 HIT:  146433142 MISS:      58866 MSHR_MERGE:      23063
cpu10->cpu10_ITLB RFO          ACCESS:          0 HIT:          0 MISS:          0 MSHR_MERGE:          0
cpu10->cpu10_ITLB PREFETCH     ACCESS:          0 HIT:          0 MISS:          0 MSHR_MERGE:          0
cpu10->cpu10_ITLB WRITE        ACCESS:          0 HIT:          0 MISS:          0 MSHR_MERGE:          0
cpu10->cpu10_ITLB TRANSLATION  ACCESS:          0 HIT:          0 MISS:          0 MSHR_MERGE:          0
cpu10->cpu10_ITLB PREFETCH REQUESTED:          0 ISSUED:          0 USEFUL:          0 USELESS:          0
cpu10->cpu10_ITLB AVERAGE MISS LATENCY: 4.005 cycles
cpu10_ITLB COHERENCE INVALIDATIONS:          0
cpu10->cpu10_DTLB TOTAL        ACCESS:  161255452 HIT:  160783451 MISS:     472001 MSHR_MERGE:     114517
cpu10->cpu10_DTLB LOAD         ACCESS:  161255452 HIT:  160783451 MISS:     472001 MSHR_MERGE:     114517
cpu10->cpu10_DTLB RFO          ACCESS:          0 HIT:          0 MISS:          0 MSHR_MERGE:          0
cpu10->cpu10_DTLB PREFETCH     ACCESS:          0 HIT:          0 MISS:          0 MSHR_MERGE:          0
cpu10->cpu10_DTLB WRITE        ACCESS:          0 HIT:          0 MISS:          0 MSHR_MERGE:          0
cpu10->cpu10_DTLB TRANSLATION  ACCESS:          0 HIT:          0 MISS:          0 MSHR_MERGE:          0
cpu10->cpu10_DTLB PREFETCH REQUESTED:          0 ISSUED:          0 USEFUL:          0 USELESS:          0
cpu10->cpu10_DTLB AVERAGE MISS LATENCY: 4 cycles
cpu10_DTLB COHERENCE INVALIDATIONS:          0
cpu0->cpu0_STLB TOTAL        ACCESS:     395653 HIT:     395653 MISS:          0 MSHR_MERGE:          0
cpu0->cpu0_STLB LOAD         ACCESS:     395653 HIT:     395653 MISS:          0 MSHR_MERGE:          0
cpu0->cpu0_STLB RFO          ACCESS:          0 HIT:          0 MISS:          0 MSHR_MERGE:          0
cpu0->cpu0_STLB PREFETCH     ACCESS:          0 HIT:          0 MISS:          0 MSHR_MERGE:          0
cpu0->cpu0_STLB WRITE        ACCESS:          0 HIT:          0 MISS:          0 MSHR_MERGE:          0
cpu0->cpu0_STLB TRANSLATION  ACCESS:          0 HIT:          0 MISS:          0 MSHR_MERGE:          0
cpu0->cpu0_STLB PREFETCH REQUESTED:          0 ISSUED:          0 USEFUL:          0 USELESS:          0
cpu0->cpu0_STLB AVERAGE MISS LATENCY: - cycles
cpu0_STLB COHERENCE INVALIDATIONS:          0
cpu0->cpu0_L2C TOTAL        ACCESS:   12619377 HIT:    6120543 MISS:    6498834 MSHR_MERGE:          0
cpu0->cpu0_L2C LOAD         ACCESS:    1995206 HIT:     673039 MISS:    1322167 MSHR_MERGE:          0
cpu0->cpu0_L2C RFO          ACCESS:    5273692 HIT:      97236 MISS:    5176456 MSHR_MERGE:          0
cpu0->cpu0_L2C PREFETCH     ACCESS:          0 HIT:          0 MISS:          0 MSHR_MERGE:          0
cpu0->cpu0_L2C WRITE        ACCESS:    5350479 HIT:    5350268 MISS:        211 MSHR_MERGE:          0
cpu0->cpu0_L2C TRANSLATION  ACCESS:          0 HIT:          0 MISS:          0 MSHR_MERGE:          0
cpu0->cpu0_L2C PREFETCH REQUESTED:          0 ISSUED:          0 USEFUL:          0 USELESS:          0
cpu0->cpu0_L2C AVERAGE MISS LATENCY: 984.8 cycles
cpu0_L2C COHERENCE INVALIDATIONS:          0
cpu0->cpu0_L1I TOTAL        ACCESS:  176974616 HIT:  176580562 MISS:     394054 MSHR_MERGE:     107727
cpu0->cpu0_L1I LOAD         ACCESS:  176974616 HIT:  176580562 MISS:     394054 MSHR_MERGE:     107727
cpu0->cpu0_L1I RFO          ACCESS:          0 HIT:          0 MISS:          0 MSHR_MERGE:          0
cpu0->cpu0_L1I PREFETCH     ACCESS:          0 HIT:          0 MISS:          0 MSHR_MERGE:          0
cpu0->cpu0_L1I WRITE        ACCESS:          0 HIT:          0 MISS:          0 MSHR_MERGE:          0
cpu0->cpu0_L1I TRANSLATION  ACCESS:          0 HIT:          0 MISS:          0 MSHR_MERGE:          0
cpu0->cpu0_L1I PREFETCH REQUESTED:          0 ISSUED:          0 USEFUL:          0 USELESS:          0
cpu0->cpu0_L1I AVERAGE MISS LATENCY: 886.2 cycles
cpu0_L1I COHERENCE INVALIDATIONS:          0
cpu0->cpu0_L1D TOTAL        ACCESS:  194989202 HIT:  154002985 MISS:   40986217 MSHR_MERGE:   34001065
cpu0->cpu0_L1D LOAD         ACCESS:   21845376 HIT:   18286448 MISS:    3558928 MSHR_MERGE:    1850049
cpu0->cpu0_L1D RFO          ACCESS:          0 HIT:          0 MISS:          0 MSHR_MERGE:          0
cpu0->cpu0_L1D PREFETCH     ACCESS:          0 HIT:          0 MISS:          0 MSHR_MERGE:          0
cpu0->cpu0_L1D WRITE        ACCESS:  173143826 HIT:  135716537 MISS:   37427289 MSHR_MERGE:   32151016
cpu0->cpu0_L1D TRANSLATION  ACCESS:          0 HIT:          0 MISS:          0 MSHR_MERGE:          0
cpu0->cpu0_L1D PREFETCH REQUESTED:          0 ISSUED:          0 USEFUL:          0 USELESS:          0
cpu0->cpu0_L1D AVERAGE MISS LATENCY: 888.1 cycles
cpu0_L1D COHERENCE INVALIDATIONS:          0
cpu0->cpu0_ITLB TOTAL        ACCESS:  147349461 HIT:  147289856 MISS:      59605 MSHR_MERGE:      23524
cpu0->cpu0_ITLB LOAD         ACCESS:  147349461 HIT:  147289856 MISS:      59605 MSHR_MERGE:      23524
cpu0->cpu0_ITLB RFO          ACCESS:          0 HIT:          0 MISS:          0 MSHR_MERGE:          0
cpu0->cpu0_ITLB PREFETCH     ACCESS:          0 HIT:          0 MISS:          0 MSHR_MERGE:          0
cpu0->cpu0_ITLB WRITE        ACCESS:          0 HIT:          0 MISS:          0 MSHR_MERGE:          0
cpu0->cpu0_ITLB TRANSLATION  ACCESS:          0 HIT:          0 MISS:          0 MSHR_MERGE:          0
cpu0->cpu0_ITLB PREFETCH REQUESTED:          0 ISSUED:          0 USEFUL:          0 USELESS:          0
cpu0->cpu0_ITLB AVERAGE MISS LATENCY: 4.004 cycles
cpu0_ITLB COHERENCE INVALIDATIONS:          0
cpu0->cpu0_DTLB TOTAL        ACCESS:  163097673 HIT:  162624383 MISS:     473290 MSHR_MERGE:     113718
cpu0->cpu0_DTLB LOAD         ACCESS:  163097673 HIT:  162624383 MISS:     473290 MSHR_MERGE:     113718
cpu0->cpu0_DTLB RFO          ACCESS:          0 HIT:          0 MISS:          0 MSHR_MERGE:          0
cpu0->cpu0_DTLB PREFETCH     ACCESS:          0 HIT:          0 MISS:          0 MSHR_MERGE:          0
cpu0->cpu0_DTLB WRITE        ACCESS:          0 HIT:          0 MISS:          0 MSHR_MERGE:          0
cpu0->cpu0_DTLB TRANSLATION  ACCESS:          0 HIT:          0 MISS:          0 MSHR_MERGE:          0
cpu0->cpu0_DTLB PREFETCH REQUESTED:          0 ISSUED:          0 USEFUL:          0 USELESS:          0
cpu0->cpu0_DTLB AVERAGE MISS LATENCY: 4 cycles
cpu0_DTLB COHERENCE INVALIDATIONS:          0
cpu0->LLC TOTAL        ACCESS:   11732582 HIT:     859192 MISS:   10873390 MSHR_MERGE:          0
cpu0->LLC LOAD         ACCESS:    1322167 HIT:         69 MISS:    1322098 MSHR_MERGE:          0
cpu0->LLC RFO          ACCESS:    5176455 HIT:         13 MISS:    5176442 MSHR_MERGE:          0
cpu0->LLC PREFETCH     ACCESS:          0 HIT:          0 MISS:          0 MSHR_MERGE:          0
cpu0->LLC WRITE        ACCESS:    5233960 HIT:     859110 MISS:    4374850 MSHR_MERGE:          0
cpu0->LLC TRANSLATION  ACCESS:          0 HIT:          0 MISS:          0 MSHR_MERGE:          0
cpu0->LLC PREFETCH REQUESTED:          0 ISSUED:          0 USEFUL:          0 USELESS:          0
cpu0->LLC AVERAGE MISS LATENCY: 1703 cycles
cpu1->LLC TOTAL        ACCESS:    1949586 HIT:          7 MISS:    1949579 MSHR_MERGE:          0
cpu1->LLC LOAD         ACCESS:    1560621 HIT:          7 MISS:    1560614 MSHR_MERGE:          0
cpu1->LLC RFO          ACCESS:          0 HIT:          0 MISS:          0 MSHR_MERGE:          0
cpu1->LLC PREFETCH     ACCESS:          0 HIT:          0 MISS:          0 MSHR_MERGE:          0
cpu1->LLC WRITE        ACCESS:          0 HIT:          0 MISS:          0 MSHR_MERGE:          0
cpu1->LLC TRANSLATION  ACCESS:     388965 HIT:          0 MISS:     388965 MSHR_MERGE:          0
cpu1->LLC PREFETCH REQUESTED:          0 ISSUED:          0 USEFUL:          0 USELESS:          0
cpu1->LLC AVERAGE MISS LATENCY: 9496 cycles
cpu5->LLC TOTAL        ACCESS:   11583167 HIT:     508776 MISS:   11074391 MSHR_MERGE:          0
cpu5->LLC LOAD         ACCESS:    1304814 HIT:        334 MISS:    1304480 MSHR_MERGE:          0
cpu5->LLC RFO          ACCESS:    5111813 HIT:        175 MISS:    5111638 MSHR_MERGE:          0
cpu5->LLC PREFETCH     ACCESS:          0 HIT:          0 MISS:          0 MSHR_MERGE:          0
cpu5->LLC WRITE        ACCESS:    5166540 HIT:     508267 MISS:    4658273 MSHR_MERGE:          0
cpu5->LLC TRANSLATION  ACCESS:          0 HIT:          0 MISS:          0 MSHR_MERGE:          0
cpu5->LLC PREFETCH REQUESTED:          0 ISSUED:          0 USEFUL:          0 USELESS:          0
cpu5->LLC AVERAGE MISS LATENCY: 1672 cycles
cpu6->LLC TOTAL        ACCESS:    1942303 HIT:          6 MISS:    1942297 MSHR_MERGE:          0
cpu6->LLC LOAD         ACCESS:    1554781 HIT:          6 MISS:    1554775 MSHR_MERGE:          0
cpu6->LLC RFO          ACCESS:          0 HIT:          0 MISS:          0 MSHR_MERGE:          0
cpu6->LLC PREFETCH     ACCESS:          0 HIT:          0 MISS:          0 MSHR_MERGE:          0
cpu6->LLC WRITE        ACCESS:          0 HIT:          0 MISS:          0 MSHR_MERGE:          0
cpu6->LLC TRANSLATION  ACCESS:     387522 HIT:          0 MISS:     387522 MSHR_MERGE:          0
cpu6->LLC PREFETCH REQUESTED:          0 ISSUED:          0 USEFUL:          0 USELESS:          0
cpu6->LLC AVERAGE MISS LATENCY: 9532 cycles
cpu10->LLC TOTAL        ACCESS:   11667357 HIT:     758516 MISS:   10908841 MSHR_MERGE:          0
cpu10->LLC LOAD         ACCESS:    1315968 HIT:        300 MISS:    1315668 MSHR_MERGE:          0
cpu10->LLC RFO          ACCESS:    5145635 HIT:        231 MISS:    5145404 MSHR_MERGE:          0
cpu10->LLC PREFETCH     ACCESS:          0 HIT:          0 MISS:          0 MSHR_MERGE:          0
cpu10->LLC WRITE        ACCESS:    5205754 HIT:     757985 MISS:    4447769 MSHR_MERGE:          0
cpu10->LLC TRANSLATION  ACCESS:          0 HIT:          0 MISS:          0 MSHR_MERGE:          0
cpu10->LLC PREFETCH REQUESTED:          0 ISSUED:          0 USEFUL:          0 USELESS:          0
cpu10->LLC AVERAGE MISS LATENCY: 1697 cycles
cpu11->LLC TOTAL        ACCESS:    1949839 HIT:         26 MISS:    1949813 MSHR_MERGE:          0
cpu11->LLC LOAD         ACCESS:    1562080 HIT:         26 MISS:    1562054 MSHR_MERGE:          0
cpu11->LLC RFO          ACCESS:          0 HIT:          0 MISS:          0 MSHR_MERGE:          0
cpu11->LLC PREFETCH     ACCESS:          0 HIT:          0 MISS:          0 MSHR_MERGE:          0
cpu11->LLC WRITE        ACCESS:          0 HIT:          0 MISS:          0 MSHR_MERGE:          0
cpu11->LLC TRANSLATION  ACCESS:     387759 HIT:          0 MISS:     387759 MSHR_MERGE:          0
cpu11->LLC PREFETCH REQUESTED:          0 ISSUED:          0 USEFUL:          0 USELESS:          0
cpu11->LLC AVERAGE MISS LATENCY: 9495 cycles
cpu15->LLC TOTAL        ACCESS:   11714012 HIT:     933337 MISS:   10780675 MSHR_MERGE:          0
cpu15->LLC LOAD         ACCESS:    1316692 HIT:        267 MISS:    1316425 MSHR_MERGE:          0
cpu15->LLC RFO          ACCESS:    5170002 HIT:        191 MISS:    5169811 MSHR_MERGE:          0
cpu15->LLC PREFETCH     ACCESS:          0 HIT:          0 MISS:          0 MSHR_MERGE:          0
cpu15->LLC WRITE        ACCESS:    5227318 HIT:     932879 MISS:    4294439 MSHR_MERGE:          0
cpu15->LLC TRANSLATION  ACCESS:          0 HIT:          0 MISS:          0 MSHR_MERGE:          0
cpu15->LLC PREFETCH REQUESTED:          0 ISSUED:          0 USEFUL:          0 USELESS:          0
cpu15->LLC AVERAGE MISS LATENCY: 1717 cycles
LLC COHERENCE INVALIDATIONS:          0

DRAM Statistics

Channel 0 RQ ROW_BUFFER_HIT:    2793738
  ROW_BUFFER_MISS:   28909900
  AVG DBUS CONGESTED CYCLE: 7.732
Channel 0 WQ ROW_BUFFER_HIT:    2063971
  ROW_BUFFER_MISS:   18766763
  FULL:       9298
Channel 0 REFRESHES ISSUED:      97951
