[VMEM] WARNING: physical memory size is smaller than virtual memory size.

*** ChampSim Multicore Out-of-Order Simulator ***
Warmup Instructions: 50000000
Simulation Instructions: 100000000
Number of CPUs: 8
Page size: 4096

Off-chip DRAM Size: 16 GiB Channels: 1 Width: 64-bit Data Rate: 3205 MT/s
Heartbeat CPU 4 instructions: 10000001 cycles: 2509179 heartbeat IPC: 3.985 cumulative IPC: 3.985 (Simulation time: 00 hr 08 min 43 sec)
Heartbeat CPU 5 instructions: 10000003 cycles: 2509276 heartbeat IPC: 3.985 cumulative IPC: 3.985 (Simulation time: 00 hr 08 min 43 sec)
Heartbeat CPU 3 instructions: 10000003 cycles: 2509387 heartbeat IPC: 3.985 cumulative IPC: 3.985 (Simulation time: 00 hr 08 min 43 sec)
Heartbeat CPU 6 instructions: 10000002 cycles: 2509598 heartbeat IPC: 3.985 cumulative IPC: 3.985 (Simulation time: 00 hr 08 min 43 sec)
Heartbeat CPU 7 instructions: 10000002 cycles: 2509727 heartbeat IPC: 3.984 cumulative IPC: 3.984 (Simulation time: 00 hr 08 min 44 sec)
Heartbeat CPU 2 instructions: 10000001 cycles: 2510814 heartbeat IPC: 3.983 cumulative IPC: 3.983 (Simulation time: 00 hr 08 min 44 sec)
Heartbeat CPU 1 instructions: 10000001 cycles: 4704618 heartbeat IPC: 2.126 cumulative IPC: 2.126 (Simulation time: 00 hr 15 min 41 sec)
Heartbeat CPU 4 instructions: 20000004 cycles: 5009526 heartbeat IPC: 3.999 cumulative IPC: 3.992 (Simulation time: 00 hr 16 min 40 sec)
Heartbeat CPU 3 instructions: 20000004 cycles: 5009605 heartbeat IPC: 4 cumulative IPC: 3.992 (Simulation time: 00 hr 16 min 40 sec)
Heartbeat CPU 5 instructions: 20000006 cycles: 5009614 heartbeat IPC: 3.999 cumulative IPC: 3.992 (Simulation time: 00 hr 16 min 40 sec)
Heartbeat CPU 6 instructions: 20000005 cycles: 5009818 heartbeat IPC: 4 cumulative IPC: 3.992 (Simulation time: 00 hr 16 min 40 sec)
Heartbeat CPU 7 instructions: 20000004 cycles: 5009947 heartbeat IPC: 4 cumulative IPC: 3.992 (Simulation time: 00 hr 16 min 40 sec)
Heartbeat CPU 2 instructions: 20000003 cycles: 5011656 heartbeat IPC: 3.999 cumulative IPC: 3.991 (Simulation time: 00 hr 16 min 41 sec)
Heartbeat CPU 4 instructions: 30000004 cycles: 7509526 heartbeat IPC: 4 cumulative IPC: 3.995 (Simulation time: 00 hr 23 min 35 sec)
Heartbeat CPU 3 instructions: 30000004 cycles: 7509605 heartbeat IPC: 4 cumulative IPC: 3.995 (Simulation time: 00 hr 23 min 35 sec)
Heartbeat CPU 5 instructions: 30000006 cycles: 7509614 heartbeat IPC: 4 cumulative IPC: 3.995 (Simulation time: 00 hr 23 min 35 sec)
Heartbeat CPU 6 instructions: 30000005 cycles: 7509818 heartbeat IPC: 4 cumulative IPC: 3.995 (Simulation time: 00 hr 23 min 35 sec)
Heartbeat CPU 7 instructions: 30000004 cycles: 7509947 heartbeat IPC: 4 cumulative IPC: 3.995 (Simulation time: 00 hr 23 min 35 sec)
Heartbeat CPU 2 instructions: 30000003 cycles: 7511656 heartbeat IPC: 4 cumulative IPC: 3.994 (Simulation time: 00 hr 23 min 35 sec)
Heartbeat CPU 1 instructions: 20000001 cycles: 9285935 heartbeat IPC: 2.183 cumulative IPC: 2.154 (Simulation time: 00 hr 30 min 06 sec)
Heartbeat CPU 4 instructions: 40000004 cycles: 10009526 heartbeat IPC: 4 cumulative IPC: 3.996 (Simulation time: 00 hr 32 min 55 sec)
Heartbeat CPU 3 instructions: 40000004 cycles: 10009605 heartbeat IPC: 4 cumulative IPC: 3.996 (Simulation time: 00 hr 32 min 55 sec)
Heartbeat CPU 5 instructions: 40000006 cycles: 10009614 heartbeat IPC: 4 cumulative IPC: 3.996 (Simulation time: 00 hr 32 min 55 sec)
Heartbeat CPU 6 instructions: 40000005 cycles: 10009818 heartbeat IPC: 4 cumulative IPC: 3.996 (Simulation time: 00 hr 32 min 55 sec)
Heartbeat CPU 7 instructions: 40000004 cycles: 10009947 heartbeat IPC: 4 cumulative IPC: 3.996 (Simulation time: 00 hr 32 min 55 sec)
Heartbeat CPU 2 instructions: 40000003 cycles: 10011656 heartbeat IPC: 4 cumulative IPC: 3.995 (Simulation time: 00 hr 32 min 56 sec)
*** Reached end of trace: (2, "/home/harshraj/COALESCE-Hashed-Perceptron-Cache-Replacement-Policy/simulator/traces/ocean_8t/ocean2.champsimtrace")
*** Reached end of trace: (5, "/home/harshraj/COALESCE-Hashed-Perceptron-Cache-Replacement-Policy/simulator/traces/ocean_8t/ocean5.champsimtrace")
*** Reached end of trace: (4, "/home/harshraj/COALESCE-Hashed-Perceptron-Cache-Replacement-Policy/simulator/traces/ocean_8t/ocean4.champsimtrace")
*** Reached end of trace: (6, "/home/harshraj/COALESCE-Hashed-Perceptron-Cache-Replacement-Policy/simulator/traces/ocean_8t/ocean6.champsimtrace")
*** Reached end of trace: (3, "/home/harshraj/COALESCE-Hashed-Perceptron-Cache-Replacement-Policy/simulator/traces/ocean_8t/ocean3.champsimtrace")
*** Reached end of trace: (7, "/home/harshraj/COALESCE-Hashed-Perceptron-Cache-Replacement-Policy/simulator/traces/ocean_8t/ocean7.champsimtrace")
Warmup finished CPU 4 instructions: 50000002 cycles: 12511532 cumulative IPC: 3.996 (Simulation time: 00 hr 42 min 34 sec)
Heartbeat CPU 4 instructions: 50000006 cycles: 12511533 heartbeat IPC: 3.997 cumulative IPC: 3.996 (Simulation time: 00 hr 42 min 34 sec)
Warmup finished CPU 3 instructions: 50000000 cycles: 12511606 cumulative IPC: 3.996 (Simulation time: 00 hr 42 min 34 sec)
Heartbeat CPU 3 instructions: 50000004 cycles: 12511607 heartbeat IPC: 3.997 cumulative IPC: 3.996 (Simulation time: 00 hr 42 min 34 sec)
Warmup finished CPU 5 instructions: 50000001 cycles: 12511617 cumulative IPC: 3.996 (Simulation time: 00 hr 42 min 34 sec)
Heartbeat CPU 5 instructions: 50000009 cycles: 12511619 heartbeat IPC: 3.997 cumulative IPC: 3.996 (Simulation time: 00 hr 42 min 34 sec)
Warmup finished CPU 6 instructions: 50000003 cycles: 12511821 cumulative IPC: 3.996 (Simulation time: 00 hr 42 min 34 sec)
Heartbeat CPU 6 instructions: 50000007 cycles: 12511822 heartbeat IPC: 3.997 cumulative IPC: 3.996 (Simulation time: 00 hr 42 min 34 sec)
Warmup finished CPU 7 instructions: 50000003 cycles: 12511954 cumulative IPC: 3.996 (Simulation time: 00 hr 42 min 34 sec)
Heartbeat CPU 7 instructions: 50000007 cycles: 12511955 heartbeat IPC: 3.997 cumulative IPC: 3.996 (Simulation time: 00 hr 42 min 34 sec)
Warmup finished CPU 2 instructions: 50000002 cycles: 12514464 cumulative IPC: 3.995 (Simulation time: 00 hr 42 min 35 sec)
Heartbeat CPU 2 instructions: 50000006 cycles: 12514465 heartbeat IPC: 3.996 cumulative IPC: 3.995 (Simulation time: 00 hr 42 min 35 sec)
Heartbeat CPU 1 instructions: 30000002 cycles: 14641557 heartbeat IPC: 1.867 cumulative IPC: 2.049 (Simulation time: 00 hr 49 min 41 sec)
Heartbeat CPU 4 instructions: 60000006 cycles: 15011533 heartbeat IPC: 4 cumulative IPC: 3.997 (Simulation time: 00 hr 50 min 42 sec)
Heartbeat CPU 3 instructions: 60000004 cycles: 15011607 heartbeat IPC: 4 cumulative IPC: 3.997 (Simulation time: 00 hr 50 min 42 sec)
Heartbeat CPU 5 instructions: 60000009 cycles: 15011619 heartbeat IPC: 4 cumulative IPC: 3.997 (Simulation time: 00 hr 50 min 42 sec)
Heartbeat CPU 6 instructions: 60000007 cycles: 15011822 heartbeat IPC: 4 cumulative IPC: 3.997 (Simulation time: 00 hr 50 min 42 sec)
Heartbeat CPU 7 instructions: 60000007 cycles: 15011955 heartbeat IPC: 4 cumulative IPC: 3.997 (Simulation time: 00 hr 50 min 42 sec)
Heartbeat CPU 2 instructions: 60000006 cycles: 15014465 heartbeat IPC: 4 cumulative IPC: 3.996 (Simulation time: 00 hr 50 min 43 sec)
Heartbeat CPU 4 instructions: 70000006 cycles: 17511533 heartbeat IPC: 4 cumulative IPC: 3.997 (Simulation time: 00 hr 57 min 51 sec)
Heartbeat CPU 3 instructions: 70000004 cycles: 17511607 heartbeat IPC: 4 cumulative IPC: 3.997 (Simulation time: 00 hr 57 min 51 sec)
Heartbeat CPU 5 instructions: 70000009 cycles: 17511619 heartbeat IPC: 4 cumulative IPC: 3.997 (Simulation time: 00 hr 57 min 51 sec)
Heartbeat CPU 6 instructions: 70000007 cycles: 17511822 heartbeat IPC: 4 cumulative IPC: 3.997 (Simulation time: 00 hr 57 min 51 sec)
Heartbeat CPU 7 instructions: 70000007 cycles: 17511955 heartbeat IPC: 4 cumulative IPC: 3.997 (Simulation time: 00 hr 57 min 51 sec)
Heartbeat CPU 2 instructions: 70000006 cycles: 17514465 heartbeat IPC: 4 cumulative IPC: 3.997 (Simulation time: 00 hr 57 min 52 sec)
Heartbeat CPU 1 instructions: 40000004 cycles: 18891540 heartbeat IPC: 2.353 cumulative IPC: 2.117 (Simulation time: 01 hr 01 min 34 sec)
Heartbeat CPU 4 instructions: 80000006 cycles: 20011533 heartbeat IPC: 4 cumulative IPC: 3.998 (Simulation time: 01 hr 05 min 38 sec)
Heartbeat CPU 3 instructions: 80000004 cycles: 20011607 heartbeat IPC: 4 cumulative IPC: 3.998 (Simulation time: 01 hr 05 min 38 sec)
Heartbeat CPU 5 instructions: 80000009 cycles: 20011619 heartbeat IPC: 4 cumulative IPC: 3.998 (Simulation time: 01 hr 05 min 38 sec)
Heartbeat CPU 6 instructions: 80000007 cycles: 20011822 heartbeat IPC: 4 cumulative IPC: 3.998 (Simulation time: 01 hr 05 min 38 sec)
Heartbeat CPU 7 instructions: 80000007 cycles: 20011955 heartbeat IPC: 4 cumulative IPC: 3.998 (Simulation time: 01 hr 05 min 38 sec)
Heartbeat CPU 2 instructions: 80000006 cycles: 20014465 heartbeat IPC: 4 cumulative IPC: 3.997 (Simulation time: 01 hr 05 min 38 sec)
*** Reached end of trace: (1, "/home/harshraj/COALESCE-Hashed-Perceptron-Cache-Replacement-Policy/simulator/traces/ocean_8t/ocean1.champsimtrace")
Heartbeat CPU 0 instructions: 10000000 cycles: 20892690 heartbeat IPC: 0.4786 cumulative IPC: 0.4786 (Simulation time: 01 hr 08 min 56 sec)
Heartbeat CPU 4 instructions: 90000006 cycles: 22511533 heartbeat IPC: 4 cumulative IPC: 3.998 (Simulation time: 01 hr 14 min 33 sec)
Heartbeat CPU 3 instructions: 90000004 cycles: 22511607 heartbeat IPC: 4 cumulative IPC: 3.998 (Simulation time: 01 hr 14 min 33 sec)
Heartbeat CPU 5 instructions: 90000009 cycles: 22511619 heartbeat IPC: 4 cumulative IPC: 3.998 (Simulation time: 01 hr 14 min 33 sec)
Heartbeat CPU 6 instructions: 90000007 cycles: 22511822 heartbeat IPC: 4 cumulative IPC: 3.998 (Simulation time: 01 hr 14 min 33 sec)
Heartbeat CPU 7 instructions: 90000007 cycles: 22511955 heartbeat IPC: 4 cumulative IPC: 3.998 (Simulation time: 01 hr 14 min 33 sec)
Heartbeat CPU 2 instructions: 90000006 cycles: 22514465 heartbeat IPC: 4 cumulative IPC: 3.997 (Simulation time: 01 hr 14 min 34 sec)
*** Reached end of trace: (2, "/home/harshraj/COALESCE-Hashed-Perceptron-Cache-Replacement-Policy/simulator/traces/ocean_8t/ocean2.champsimtrace")
*** Reached end of trace: (5, "/home/harshraj/COALESCE-Hashed-Perceptron-Cache-Replacement-Policy/simulator/traces/ocean_8t/ocean5.champsimtrace")
*** Reached end of trace: (4, "/home/harshraj/COALESCE-Hashed-Perceptron-Cache-Replacement-Policy/simulator/traces/ocean_8t/ocean4.champsimtrace")
*** Reached end of trace: (6, "/home/harshraj/COALESCE-Hashed-Perceptron-Cache-Replacement-Policy/simulator/traces/ocean_8t/ocean6.champsimtrace")
*** Reached end of trace: (3, "/home/harshraj/COALESCE-Hashed-Perceptron-Cache-Replacement-Policy/simulator/traces/ocean_8t/ocean3.champsimtrace")
*** Reached end of trace: (7, "/home/harshraj/COALESCE-Hashed-Perceptron-Cache-Replacement-Policy/simulator/traces/ocean_8t/ocean7.champsimtrace")
Warmup finished CPU 1 instructions: 50000000 cycles: 22771164 cumulative IPC: 2.196 (Simulation time: 01 hr 15 min 26 sec)
Heartbeat CPU 1 instructions: 50000004 cycles: 22771165 heartbeat IPC: 2.578 cumulative IPC: 2.196 (Simulation time: 01 hr 15 min 26 sec)
Heartbeat CPU 4 instructions: 100000006 cycles: 25011533 heartbeat IPC: 4 cumulative IPC: 3.998 (Simulation time: 01 hr 23 min 09 sec)
Heartbeat CPU 3 instructions: 100000004 cycles: 25011607 heartbeat IPC: 4 cumulative IPC: 3.998 (Simulation time: 01 hr 23 min 09 sec)
Heartbeat CPU 5 instructions: 100000009 cycles: 25011619 heartbeat IPC: 4 cumulative IPC: 3.998 (Simulation time: 01 hr 23 min 09 sec)
Heartbeat CPU 6 instructions: 100000007 cycles: 25011822 heartbeat IPC: 4 cumulative IPC: 3.998 (Simulation time: 01 hr 23 min 09 sec)
Heartbeat CPU 7 instructions: 100000007 cycles: 25011955 heartbeat IPC: 4 cumulative IPC: 3.998 (Simulation time: 01 hr 23 min 09 sec)
Heartbeat CPU 2 instructions: 100000006 cycles: 25014465 heartbeat IPC: 4 cumulative IPC: 3.998 (Simulation time: 01 hr 23 min 10 sec)
Heartbeat CPU 1 instructions: 60000005 cycles: 26875754 heartbeat IPC: 2.436 cumulative IPC: 2.232 (Simulation time: 01 hr 30 min 11 sec)
Heartbeat CPU 4 instructions: 110000006 cycles: 27511533 heartbeat IPC: 4 cumulative IPC: 3.998 (Simulation time: 01 hr 32 min 27 sec)
Heartbeat CPU 3 instructions: 110000004 cycles: 27511607 heartbeat IPC: 4 cumulative IPC: 3.998 (Simulation time: 01 hr 32 min 27 sec)
Heartbeat CPU 5 instructions: 110000009 cycles: 27511619 heartbeat IPC: 4 cumulative IPC: 3.998 (Simulation time: 01 hr 32 min 27 sec)
Heartbeat CPU 6 instructions: 110000007 cycles: 27511822 heartbeat IPC: 4 cumulative IPC: 3.998 (Simulation time: 01 hr 32 min 27 sec)
Heartbeat CPU 7 instructions: 110000007 cycles: 27511955 heartbeat IPC: 4 cumulative IPC: 3.998 (Simulation time: 01 hr 32 min 27 sec)
Heartbeat CPU 2 instructions: 110000006 cycles: 27514465 heartbeat IPC: 4 cumulative IPC: 3.998 (Simulation time: 01 hr 32 min 28 sec)
Heartbeat CPU 4 instructions: 120000006 cycles: 30011533 heartbeat IPC: 4 cumulative IPC: 3.998 (Simulation time: 01 hr 41 min 41 sec)
Heartbeat CPU 3 instructions: 120000004 cycles: 30011607 heartbeat IPC: 4 cumulative IPC: 3.998 (Simulation time: 01 hr 41 min 41 sec)
Heartbeat CPU 5 instructions: 120000009 cycles: 30011619 heartbeat IPC: 4 cumulative IPC: 3.998 (Simulation time: 01 hr 41 min 41 sec)
Heartbeat CPU 6 instructions: 120000007 cycles: 30011822 heartbeat IPC: 4 cumulative IPC: 3.998 (Simulation time: 01 hr 41 min 41 sec)
Heartbeat CPU 7 instructions: 120000007 cycles: 30011955 heartbeat IPC: 4 cumulative IPC: 3.998 (Simulation time: 01 hr 41 min 41 sec)
Heartbeat CPU 2 instructions: 120000006 cycles: 30014465 heartbeat IPC: 4 cumulative IPC: 3.998 (Simulation time: 01 hr 41 min 42 sec)
Heartbeat CPU 1 instructions: 70000005 cycles: 31056766 heartbeat IPC: 2.392 cumulative IPC: 2.254 (Simulation time: 01 hr 45 min 24 sec)
Heartbeat CPU 4 instructions: 130000006 cycles: 32511533 heartbeat IPC: 4 cumulative IPC: 3.999 (Simulation time: 01 hr 50 min 19 sec)
Heartbeat CPU 3 instructions: 130000004 cycles: 32511607 heartbeat IPC: 4 cumulative IPC: 3.999 (Simulation time: 01 hr 50 min 19 sec)
Heartbeat CPU 5 instructions: 130000009 cycles: 32511619 heartbeat IPC: 4 cumulative IPC: 3.999 (Simulation time: 01 hr 50 min 19 sec)
Heartbeat CPU 6 instructions: 130000007 cycles: 32511822 heartbeat IPC: 4 cumulative IPC: 3.999 (Simulation time: 01 hr 50 min 19 sec)
Heartbeat CPU 7 instructions: 130000007 cycles: 32511955 heartbeat IPC: 4 cumulative IPC: 3.999 (Simulation time: 01 hr 50 min 19 sec)
Heartbeat CPU 2 instructions: 130000006 cycles: 32514465 heartbeat IPC: 4 cumulative IPC: 3.998 (Simulation time: 01 hr 50 min 19 sec)
*** Reached end of trace: (2, "/home/harshraj/COALESCE-Hashed-Perceptron-Cache-Replacement-Policy/simulator/traces/ocean_8t/ocean2.champsimtrace")
*** Reached end of trace: (5, "/home/harshraj/COALESCE-Hashed-Perceptron-Cache-Replacement-Policy/simulator/traces/ocean_8t/ocean5.champsimtrace")
*** Reached end of trace: (4, "/home/harshraj/COALESCE-Hashed-Perceptron-Cache-Replacement-Policy/simulator/traces/ocean_8t/ocean4.champsimtrace")
*** Reached end of trace: (6, "/home/harshraj/COALESCE-Hashed-Perceptron-Cache-Replacement-Policy/simulator/traces/ocean_8t/ocean6.champsimtrace")
*** Reached end of trace: (3, "/home/harshraj/COALESCE-Hashed-Perceptron-Cache-Replacement-Policy/simulator/traces/ocean_8t/ocean3.champsimtrace")
*** Reached end of trace: (7, "/home/harshraj/COALESCE-Hashed-Perceptron-Cache-Replacement-Policy/simulator/traces/ocean_8t/ocean7.champsimtrace")
Heartbeat CPU 4 instructions: 140000006 cycles: 35011533 heartbeat IPC: 4 cumulative IPC: 3.999 (Simulation time: 01 hr 58 min 17 sec)
Heartbeat CPU 3 instructions: 140000004 cycles: 35011607 heartbeat IPC: 4 cumulative IPC: 3.999 (Simulation time: 01 hr 58 min 17 sec)
Heartbeat CPU 5 instructions: 140000009 cycles: 35011619 heartbeat IPC: 4 cumulative IPC: 3.999 (Simulation time: 01 hr 58 min 17 sec)
Heartbeat CPU 6 instructions: 140000007 cycles: 35011822 heartbeat IPC: 4 cumulative IPC: 3.999 (Simulation time: 01 hr 58 min 17 sec)
Heartbeat CPU 7 instructions: 140000007 cycles: 35011955 heartbeat IPC: 4 cumulative IPC: 3.999 (Simulation time: 01 hr 58 min 17 sec)
Heartbeat CPU 2 instructions: 140000006 cycles: 35014465 heartbeat IPC: 4 cumulative IPC: 3.998 (Simulation time: 01 hr 58 min 18 sec)
Heartbeat CPU 1 instructions: 80000005 cycles: 36623298 heartbeat IPC: 1.796 cumulative IPC: 2.184 (Simulation time: 02 hr 04 min 59 sec)
Heartbeat CPU 4 instructions: 150000006 cycles: 37511533 heartbeat IPC: 4 cumulative IPC: 3.999 (Simulation time: 02 hr 08 min 27 sec)
Heartbeat CPU 3 instructions: 150000004 cycles: 37511607 heartbeat IPC: 4 cumulative IPC: 3.999 (Simulation time: 02 hr 08 min 27 sec)
Heartbeat CPU 5 instructions: 150000009 cycles: 37511619 heartbeat IPC: 4 cumulative IPC: 3.999 (Simulation time: 02 hr 08 min 27 sec)
Heartbeat CPU 6 instructions: 150000007 cycles: 37511822 heartbeat IPC: 4 cumulative IPC: 3.999 (Simulation time: 02 hr 08 min 28 sec)
Heartbeat CPU 7 instructions: 150000007 cycles: 37511955 heartbeat IPC: 4 cumulative IPC: 3.999 (Simulation time: 02 hr 08 min 28 sec)
Heartbeat CPU 2 instructions: 150000006 cycles: 37514465 heartbeat IPC: 4 cumulative IPC: 3.998 (Simulation time: 02 hr 08 min 28 sec)
Heartbeat CPU 4 instructions: 160000006 cycles: 40011533 heartbeat IPC: 4 cumulative IPC: 3.999 (Simulation time: 02 hr 18 min 36 sec)
Heartbeat CPU 3 instructions: 160000004 cycles: 40011607 heartbeat IPC: 4 cumulative IPC: 3.999 (Simulation time: 02 hr 18 min 36 sec)
Heartbeat CPU 5 instructions: 160000009 cycles: 40011619 heartbeat IPC: 4 cumulative IPC: 3.999 (Simulation time: 02 hr 18 min 36 sec)
Heartbeat CPU 6 instructions: 160000007 cycles: 40011822 heartbeat IPC: 4 cumulative IPC: 3.999 (Simulation time: 02 hr 18 min 36 sec)
Heartbeat CPU 7 instructions: 160000007 cycles: 40011955 heartbeat IPC: 4 cumulative IPC: 3.999 (Simulation time: 02 hr 18 min 36 sec)
Heartbeat CPU 2 instructions: 160000006 cycles: 40014465 heartbeat IPC: 4 cumulative IPC: 3.999 (Simulation time: 02 hr 18 min 36 sec)
Heartbeat CPU 1 instructions: 90000006 cycles: 40060650 heartbeat IPC: 2.909 cumulative IPC: 2.247 (Simulation time: 02 hr 18 min 48 sec)
*** Reached end of trace: (1, "/home/harshraj/COALESCE-Hashed-Perceptron-Cache-Replacement-Policy/simulator/traces/ocean_8t/ocean1.champsimtrace")
Heartbeat CPU 0 instructions: 20000001 cycles: 42223809 heartbeat IPC: 0.4688 cumulative IPC: 0.4737 (Simulation time: 02 hr 26 min 34 sec)
Heartbeat CPU 4 instructions: 170000006 cycles: 42511533 heartbeat IPC: 4 cumulative IPC: 3.999 (Simulation time: 02 hr 27 min 28 sec)
Heartbeat CPU 3 instructions: 170000004 cycles: 42511607 heartbeat IPC: 4 cumulative IPC: 3.999 (Simulation time: 02 hr 27 min 28 sec)
Heartbeat CPU 5 instructions: 170000009 cycles: 42511619 heartbeat IPC: 4 cumulative IPC: 3.999 (Simulation time: 02 hr 27 min 28 sec)
Heartbeat CPU 6 instructions: 170000007 cycles: 42511822 heartbeat IPC: 4 cumulative IPC: 3.999 (Simulation time: 02 hr 27 min 28 sec)
Heartbeat CPU 7 instructions: 170000007 cycles: 42511955 heartbeat IPC: 4 cumulative IPC: 3.999 (Simulation time: 02 hr 27 min 28 sec)
Heartbeat CPU 2 instructions: 170000006 cycles: 42514465 heartbeat IPC: 4 cumulative IPC: 3.999 (Simulation time: 02 hr 27 min 29 sec)
Heartbeat CPU 1 instructions: 100000009 cycles: 44152359 heartbeat IPC: 2.444 cumulative IPC: 2.265 (Simulation time: 02 hr 32 min 10 sec)
Heartbeat CPU 4 instructions: 180000006 cycles: 45011533 heartbeat IPC: 4 cumulative IPC: 3.999 (Simulation time: 02 hr 35 min 09 sec)
Heartbeat CPU 3 instructions: 180000004 cycles: 45011607 heartbeat IPC: 4 cumulative IPC: 3.999 (Simulation time: 02 hr 35 min 09 sec)
Heartbeat CPU 5 instructions: 180000009 cycles: 45011619 heartbeat IPC: 4 cumulative IPC: 3.999 (Simulation time: 02 hr 35 min 09 sec)
Heartbeat CPU 6 instructions: 180000007 cycles: 45011822 heartbeat IPC: 4 cumulative IPC: 3.999 (Simulation time: 02 hr 35 min 09 sec)
Heartbeat CPU 7 instructions: 180000007 cycles: 45011955 heartbeat IPC: 4 cumulative IPC: 3.999 (Simulation time: 02 hr 35 min 09 sec)
Heartbeat CPU 2 instructions: 180000006 cycles: 45014465 heartbeat IPC: 4 cumulative IPC: 3.999 (Simulation time: 02 hr 35 min 09 sec)
*** Reached end of trace: (2, "/home/harshraj/COALESCE-Hashed-Perceptron-Cache-Replacement-Policy/simulator/traces/ocean_8t/ocean2.champsimtrace")
*** Reached end of trace: (5, "/home/harshraj/COALESCE-Hashed-Perceptron-Cache-Replacement-Policy/simulator/traces/ocean_8t/ocean5.champsimtrace")
*** Reached end of trace: (4, "/home/harshraj/COALESCE-Hashed-Perceptron-Cache-Replacement-Policy/simulator/traces/ocean_8t/ocean4.champsimtrace")
*** Reached end of trace: (6, "/home/harshraj/COALESCE-Hashed-Perceptron-Cache-Replacement-Policy/simulator/traces/ocean_8t/ocean6.champsimtrace")
*** Reached end of trace: (3, "/home/harshraj/COALESCE-Hashed-Perceptron-Cache-Replacement-Policy/simulator/traces/ocean_8t/ocean3.champsimtrace")
*** Reached end of trace: (7, "/home/harshraj/COALESCE-Hashed-Perceptron-Cache-Replacement-Policy/simulator/traces/ocean_8t/ocean7.champsimtrace")
Heartbeat CPU 4 instructions: 190000006 cycles: 47511533 heartbeat IPC: 4 cumulative IPC: 3.999 (Simulation time: 02 hr 43 min 32 sec)
Heartbeat CPU 3 instructions: 190000004 cycles: 47511607 heartbeat IPC: 4 cumulative IPC: 3.999 (Simulation time: 02 hr 43 min 32 sec)
Heartbeat CPU 5 instructions: 190000009 cycles: 47511619 heartbeat IPC: 4 cumulative IPC: 3.999 (Simulation time: 02 hr 43 min 32 sec)
Heartbeat CPU 6 instructions: 190000007 cycles: 47511822 heartbeat IPC: 4 cumulative IPC: 3.999 (Simulation time: 02 hr 43 min 32 sec)
Heartbeat CPU 7 instructions: 190000007 cycles: 47511955 heartbeat IPC: 4 cumulative IPC: 3.999 (Simulation time: 02 hr 43 min 32 sec)
Heartbeat CPU 2 instructions: 190000006 cycles: 47514465 heartbeat IPC: 4 cumulative IPC: 3.999 (Simulation time: 02 hr 43 min 33 sec)
Heartbeat CPU 1 instructions: 110000010 cycles: 48264380 heartbeat IPC: 2.432 cumulative IPC: 2.279 (Simulation time: 02 hr 45 min 39 sec)
Heartbeat CPU 4 instructions: 200000006 cycles: 50011533 heartbeat IPC: 4 cumulative IPC: 3.999 (Simulation time: 02 hr 50 min 43 sec)
Heartbeat CPU 3 instructions: 200000004 cycles: 50011607 heartbeat IPC: 4 cumulative IPC: 3.999 (Simulation time: 02 hr 50 min 43 sec)
Heartbeat CPU 5 instructions: 200000009 cycles: 50011619 heartbeat IPC: 4 cumulative IPC: 3.999 (Simulation time: 02 hr 50 min 43 sec)
Heartbeat CPU 6 instructions: 200000007 cycles: 50011822 heartbeat IPC: 4 cumulative IPC: 3.999 (Simulation time: 02 hr 50 min 43 sec)
Heartbeat CPU 7 instructions: 200000007 cycles: 50011955 heartbeat IPC: 4 cumulative IPC: 3.999 (Simulation time: 02 hr 50 min 43 sec)
Heartbeat CPU 2 instructions: 200000006 cycles: 50014465 heartbeat IPC: 4 cumulative IPC: 3.999 (Simulation time: 02 hr 50 min 43 sec)
Heartbeat CPU 4 instructions: 210000006 cycles: 52511533 heartbeat IPC: 4 cumulative IPC: 3.999 (Simulation time: 02 hr 59 min 23 sec)
Heartbeat CPU 3 instructions: 210000004 cycles: 52511607 heartbeat IPC: 4 cumulative IPC: 3.999 (Simulation time: 02 hr 59 min 23 sec)
Heartbeat CPU 5 instructions: 210000009 cycles: 52511619 heartbeat IPC: 4 cumulative IPC: 3.999 (Simulation time: 02 hr 59 min 23 sec)
Heartbeat CPU 6 instructions: 210000007 cycles: 52511822 heartbeat IPC: 4 cumulative IPC: 3.999 (Simulation time: 02 hr 59 min 23 sec)
Heartbeat CPU 7 instructions: 210000007 cycles: 52511955 heartbeat IPC: 4 cumulative IPC: 3.999 (Simulation time: 02 hr 59 min 23 sec)
Heartbeat CPU 2 instructions: 210000006 cycles: 52514465 heartbeat IPC: 4 cumulative IPC: 3.999 (Simulation time: 02 hr 59 min 23 sec)
Heartbeat CPU 1 instructions: 120000011 cycles: 53207885 heartbeat IPC: 2.023 cumulative IPC: 2.255 (Simulation time: 03 hr 01 min 30 sec)
Heartbeat CPU 4 instructions: 220000006 cycles: 55011533 heartbeat IPC: 4 cumulative IPC: 3.999 (Simulation time: 03 hr 06 min 16 sec)
Heartbeat CPU 3 instructions: 220000004 cycles: 55011607 heartbeat IPC: 4 cumulative IPC: 3.999 (Simulation time: 03 hr 06 min 16 sec)
Heartbeat CPU 5 instructions: 220000009 cycles: 55011619 heartbeat IPC: 4 cumulative IPC: 3.999 (Simulation time: 03 hr 06 min 16 sec)
Heartbeat CPU 6 instructions: 220000007 cycles: 55011822 heartbeat IPC: 4 cumulative IPC: 3.999 (Simulation time: 03 hr 06 min 16 sec)
Heartbeat CPU 7 instructions: 220000007 cycles: 55011955 heartbeat IPC: 4 cumulative IPC: 3.999 (Simulation time: 03 hr 06 min 16 sec)
Heartbeat CPU 2 instructions: 220000006 cycles: 55014465 heartbeat IPC: 4 cumulative IPC: 3.999 (Simulation time: 03 hr 06 min 17 sec)
*** Reached end of trace: (2, "/home/harshraj/COALESCE-Hashed-Perceptron-Cache-Replacement-Policy/simulator/traces/ocean_8t/ocean2.champsimtrace")
*** Reached end of trace: (5, "/home/harshraj/COALESCE-Hashed-Perceptron-Cache-Replacement-Policy/simulator/traces/ocean_8t/ocean5.champsimtrace")
*** Reached end of trace: (4, "/home/harshraj/COALESCE-Hashed-Perceptron-Cache-Replacement-Policy/simulator/traces/ocean_8t/ocean4.champsimtrace")
*** Reached end of trace: (6, "/home/harshraj/COALESCE-Hashed-Perceptron-Cache-Replacement-Policy/simulator/traces/ocean_8t/ocean6.champsimtrace")
*** Reached end of trace: (3, "/home/harshraj/COALESCE-Hashed-Perceptron-Cache-Replacement-Policy/simulator/traces/ocean_8t/ocean3.champsimtrace")
*** Reached end of trace: (7, "/home/harshraj/COALESCE-Hashed-Perceptron-Cache-Replacement-Policy/simulator/traces/ocean_8t/ocean7.champsimtrace")
Heartbeat CPU 4 instructions: 230000006 cycles: 57511533 heartbeat IPC: 4 cumulative IPC: 3.999 (Simulation time: 03 hr 15 min 15 sec)
Heartbeat CPU 3 instructions: 230000004 cycles: 57511607 heartbeat IPC: 4 cumulative IPC: 3.999 (Simulation time: 03 hr 15 min 15 sec)
Heartbeat CPU 5 instructions: 230000009 cycles: 57511619 heartbeat IPC: 4 cumulative IPC: 3.999 (Simulation time: 03 hr 15 min 15 sec)
Heartbeat CPU 6 instructions: 230000007 cycles: 57511822 heartbeat IPC: 4 cumulative IPC: 3.999 (Simulation time: 03 hr 15 min 15 sec)
Heartbeat CPU 7 instructions: 230000007 cycles: 57511955 heartbeat IPC: 4 cumulative IPC: 3.999 (Simulation time: 03 hr 15 min 15 sec)
Heartbeat CPU 2 instructions: 230000006 cycles: 57514465 heartbeat IPC: 4 cumulative IPC: 3.999 (Simulation time: 03 hr 15 min 16 sec)
Heartbeat CPU 1 instructions: 130000011 cycles: 57705489 heartbeat IPC: 2.223 cumulative IPC: 2.253 (Simulation time: 03 hr 16 min 02 sec)
Heartbeat CPU 4 instructions: 240000006 cycles: 60011533 heartbeat IPC: 4 cumulative IPC: 3.999 (Simulation time: 03 hr 24 min 17 sec)
Heartbeat CPU 3 instructions: 240000004 cycles: 60011607 heartbeat IPC: 4 cumulative IPC: 3.999 (Simulation time: 03 hr 24 min 17 sec)
Heartbeat CPU 5 instructions: 240000009 cycles: 60011619 heartbeat IPC: 4 cumulative IPC: 3.999 (Simulation time: 03 hr 24 min 17 sec)
Heartbeat CPU 6 instructions: 240000007 cycles: 60011822 heartbeat IPC: 4 cumulative IPC: 3.999 (Simulation time: 03 hr 24 min 17 sec)
Heartbeat CPU 7 instructions: 240000007 cycles: 60011955 heartbeat IPC: 4 cumulative IPC: 3.999 (Simulation time: 03 hr 24 min 17 sec)
Heartbeat CPU 2 instructions: 240000006 cycles: 60014465 heartbeat IPC: 4 cumulative IPC: 3.999 (Simulation time: 03 hr 24 min 17 sec)
*** Reached end of trace: (1, "/home/harshraj/COALESCE-Hashed-Perceptron-Cache-Replacement-Policy/simulator/traces/ocean_8t/ocean1.champsimtrace")
Heartbeat CPU 1 instructions: 140000011 cycles: 61447377 heartbeat IPC: 2.672 cumulative IPC: 2.278 (Simulation time: 03 hr 28 min 29 sec)
Heartbeat CPU 0 instructions: 30000005 cycles: 62359462 heartbeat IPC: 0.4966 cumulative IPC: 0.4811 (Simulation time: 03 hr 30 min 41 sec)
Heartbeat CPU 4 instructions: 250000006 cycles: 62511533 heartbeat IPC: 4 cumulative IPC: 3.999 (Simulation time: 03 hr 31 min 03 sec)
Heartbeat CPU 3 instructions: 250000004 cycles: 62511607 heartbeat IPC: 4 cumulative IPC: 3.999 (Simulation time: 03 hr 31 min 03 sec)
Heartbeat CPU 5 instructions: 250000009 cycles: 62511619 heartbeat IPC: 4 cumulative IPC: 3.999 (Simulation time: 03 hr 31 min 03 sec)
Heartbeat CPU 6 instructions: 250000007 cycles: 62511822 heartbeat IPC: 4 cumulative IPC: 3.999 (Simulation time: 03 hr 31 min 03 sec)
Heartbeat CPU 7 instructions: 250000007 cycles: 62511955 heartbeat IPC: 4 cumulative IPC: 3.999 (Simulation time: 03 hr 31 min 03 sec)
Heartbeat CPU 2 instructions: 250000006 cycles: 62514465 heartbeat IPC: 4 cumulative IPC: 3.999 (Simulation time: 03 hr 31 min 04 sec)
Heartbeat CPU 4 instructions: 260000006 cycles: 65011533 heartbeat IPC: 4 cumulative IPC: 3.999 (Simulation time: 03 hr 38 min 48 sec)
Heartbeat CPU 3 instructions: 260000004 cycles: 65011607 heartbeat IPC: 4 cumulative IPC: 3.999 (Simulation time: 03 hr 38 min 48 sec)
Heartbeat CPU 5 instructions: 260000009 cycles: 65011619 heartbeat IPC: 4 cumulative IPC: 3.999 (Simulation time: 03 hr 38 min 48 sec)
Heartbeat CPU 6 instructions: 260000007 cycles: 65011822 heartbeat IPC: 4 cumulative IPC: 3.999 (Simulation time: 03 hr 38 min 48 sec)
Heartbeat CPU 7 instructions: 260000007 cycles: 65011955 heartbeat IPC: 4 cumulative IPC: 3.999 (Simulation time: 03 hr 38 min 48 sec)
Heartbeat CPU 2 instructions: 260000006 cycles: 65014465 heartbeat IPC: 4 cumulative IPC: 3.999 (Simulation time: 03 hr 38 min 49 sec)
Heartbeat CPU 1 instructions: 150000011 cycles: 65655137 heartbeat IPC: 2.377 cumulative IPC: 2.285 (Simulation time: 03 hr 41 min 13 sec)
Heartbeat CPU 4 instructions: 270000006 cycles: 67511533 heartbeat IPC: 4 cumulative IPC: 3.999 (Simulation time: 03 hr 48 min 18 sec)
Heartbeat CPU 3 instructions: 270000004 cycles: 67511607 heartbeat IPC: 4 cumulative IPC: 3.999 (Simulation time: 03 hr 48 min 18 sec)
Heartbeat CPU 5 instructions: 270000009 cycles: 67511619 heartbeat IPC: 4 cumulative IPC: 3.999 (Simulation time: 03 hr 48 min 18 sec)
Heartbeat CPU 6 instructions: 270000007 cycles: 67511822 heartbeat IPC: 4 cumulative IPC: 3.999 (Simulation time: 03 hr 48 min 18 sec)
Heartbeat CPU 7 instructions: 270000007 cycles: 67511955 heartbeat IPC: 4 cumulative IPC: 3.999 (Simulation time: 03 hr 48 min 18 sec)
Heartbeat CPU 2 instructions: 270000006 cycles: 67514465 heartbeat IPC: 4 cumulative IPC: 3.999 (Simulation time: 03 hr 48 min 18 sec)
*** Reached end of trace: (2, "/home/harshraj/COALESCE-Hashed-Perceptron-Cache-Replacement-Policy/simulator/traces/ocean_8t/ocean2.champsimtrace")
*** Reached end of trace: (5, "/home/harshraj/COALESCE-Hashed-Perceptron-Cache-Replacement-Policy/simulator/traces/ocean_8t/ocean5.champsimtrace")
*** Reached end of trace: (4, "/home/harshraj/COALESCE-Hashed-Perceptron-Cache-Replacement-Policy/simulator/traces/ocean_8t/ocean4.champsimtrace")
*** Reached end of trace: (6, "/home/harshraj/COALESCE-Hashed-Perceptron-Cache-Replacement-Policy/simulator/traces/ocean_8t/ocean6.champsimtrace")
*** Reached end of trace: (3, "/home/harshraj/COALESCE-Hashed-Perceptron-Cache-Replacement-Policy/simulator/traces/ocean_8t/ocean3.champsimtrace")
*** Reached end of trace: (7, "/home/harshraj/COALESCE-Hashed-Perceptron-Cache-Replacement-Policy/simulator/traces/ocean_8t/ocean7.champsimtrace")
Heartbeat CPU 1 instructions: 160000014 cycles: 69790923 heartbeat IPC: 2.418 cumulative IPC: 2.293 (Simulation time: 03 hr 56 min 32 sec)
Heartbeat CPU 4 instructions: 280000006 cycles: 70011533 heartbeat IPC: 4 cumulative IPC: 3.999 (Simulation time: 03 hr 57 min 19 sec)
Heartbeat CPU 3 instructions: 280000004 cycles: 70011607 heartbeat IPC: 4 cumulative IPC: 3.999 (Simulation time: 03 hr 57 min 19 sec)
Heartbeat CPU 5 instructions: 280000009 cycles: 70011619 heartbeat IPC: 4 cumulative IPC: 3.999 (Simulation time: 03 hr 57 min 19 sec)
Heartbeat CPU 6 instructions: 280000007 cycles: 70011822 heartbeat IPC: 4 cumulative IPC: 3.999 (Simulation time: 03 hr 57 min 19 sec)
Heartbeat CPU 7 instructions: 280000007 cycles: 70011955 heartbeat IPC: 4 cumulative IPC: 3.999 (Simulation time: 03 hr 57 min 19 sec)
Heartbeat CPU 2 instructions: 280000006 cycles: 70014465 heartbeat IPC: 4 cumulative IPC: 3.999 (Simulation time: 03 hr 57 min 20 sec)
Heartbeat CPU 4 instructions: 290000006 cycles: 72511533 heartbeat IPC: 4 cumulative IPC: 3.999 (Simulation time: 04 hr 06 min 32 sec)
Heartbeat CPU 3 instructions: 290000004 cycles: 72511607 heartbeat IPC: 4 cumulative IPC: 3.999 (Simulation time: 04 hr 06 min 32 sec)
Heartbeat CPU 5 instructions: 290000009 cycles: 72511619 heartbeat IPC: 4 cumulative IPC: 3.999 (Simulation time: 04 hr 06 min 32 sec)
Heartbeat CPU 6 instructions: 290000007 cycles: 72511822 heartbeat IPC: 4 cumulative IPC: 3.999 (Simulation time: 04 hr 06 min 32 sec)
Heartbeat CPU 7 instructions: 290000007 cycles: 72511955 heartbeat IPC: 4 cumulative IPC: 3.999 (Simulation time: 04 hr 06 min 32 sec)
Heartbeat CPU 2 instructions: 290000006 cycles: 72514465 heartbeat IPC: 4 cumulative IPC: 3.999 (Simulation time: 04 hr 06 min 32 sec)
Heartbeat CPU 4 instructions: 300000006 cycles: 75011533 heartbeat IPC: 4 cumulative IPC: 3.999 (Simulation time: 04 hr 15 min 27 sec)
Heartbeat CPU 3 instructions: 300000004 cycles: 75011607 heartbeat IPC: 4 cumulative IPC: 3.999 (Simulation time: 04 hr 15 min 27 sec)
Heartbeat CPU 5 instructions: 300000009 cycles: 75011619 heartbeat IPC: 4 cumulative IPC: 3.999 (Simulation time: 04 hr 15 min 27 sec)
Heartbeat CPU 6 instructions: 300000007 cycles: 75011822 heartbeat IPC: 4 cumulative IPC: 3.999 (Simulation time: 04 hr 15 min 27 sec)
Heartbeat CPU 7 instructions: 300000007 cycles: 75011955 heartbeat IPC: 4 cumulative IPC: 3.999 (Simulation time: 04 hr 15 min 27 sec)
Heartbeat CPU 2 instructions: 300000006 cycles: 75014465 heartbeat IPC: 4 cumulative IPC: 3.999 (Simulation time: 04 hr 15 min 27 sec)
Heartbeat CPU 1 instructions: 170000014 cycles: 75375231 heartbeat IPC: 1.791 cumulative IPC: 2.255 (Simulation time: 04 hr 16 min 49 sec)
Heartbeat CPU 4 instructions: 310000006 cycles: 77511533 heartbeat IPC: 4 cumulative IPC: 3.999 (Simulation time: 04 hr 24 min 18 sec)
Heartbeat CPU 3 instructions: 310000004 cycles: 77511607 heartbeat IPC: 4 cumulative IPC: 3.999 (Simulation time: 04 hr 24 min 18 sec)
Heartbeat CPU 5 instructions: 310000009 cycles: 77511619 heartbeat IPC: 4 cumulative IPC: 3.999 (Simulation time: 04 hr 24 min 18 sec)
Heartbeat CPU 6 instructions: 310000007 cycles: 77511822 heartbeat IPC: 4 cumulative IPC: 3.999 (Simulation time: 04 hr 24 min 18 sec)
Heartbeat CPU 7 instructions: 310000007 cycles: 77511955 heartbeat IPC: 4 cumulative IPC: 3.999 (Simulation time: 04 hr 24 min 18 sec)
Heartbeat CPU 2 instructions: 310000006 cycles: 77514465 heartbeat IPC: 4 cumulative IPC: 3.999 (Simulation time: 04 hr 24 min 19 sec)
Heartbeat CPU 1 instructions: 180000017 cycles: 78932993 heartbeat IPC: 2.811 cumulative IPC: 2.28 (Simulation time: 04 hr 29 min 13 sec)
*** Reached end of trace: (2, "/home/harshraj/COALESCE-Hashed-Perceptron-Cache-Replacement-Policy/simulator/traces/ocean_8t/ocean2.champsimtrace")
*** Reached end of trace: (5, "/home/harshraj/COALESCE-Hashed-Perceptron-Cache-Replacement-Policy/simulator/traces/ocean_8t/ocean5.champsimtrace")
*** Reached end of trace: (4, "/home/harshraj/COALESCE-Hashed-Perceptron-Cache-Replacement-Policy/simulator/traces/ocean_8t/ocean4.champsimtrace")
*** Reached end of trace: (6, "/home/harshraj/COALESCE-Hashed-Perceptron-Cache-Replacement-Policy/simulator/traces/ocean_8t/ocean6.champsimtrace")
*** Reached end of trace: (3, "/home/harshraj/COALESCE-Hashed-Perceptron-Cache-Replacement-Policy/simulator/traces/ocean_8t/ocean3.champsimtrace")
*** Reached end of trace: (1, "/home/harshraj/COALESCE-Hashed-Perceptron-Cache-Replacement-Policy/simulator/traces/ocean_8t/ocean1.champsimtrace")
*** Reached end of trace: (7, "/home/harshraj/COALESCE-Hashed-Perceptron-Cache-Replacement-Policy/simulator/traces/ocean_8t/ocean7.champsimtrace")
Heartbeat CPU 4 instructions: 320000006 cycles: 80011533 heartbeat IPC: 4 cumulative IPC: 3.999 (Simulation time: 04 hr 33 min 04 sec)
Heartbeat CPU 3 instructions: 320000004 cycles: 80011607 heartbeat IPC: 4 cumulative IPC: 3.999 (Simulation time: 04 hr 33 min 04 sec)
Heartbeat CPU 5 instructions: 320000009 cycles: 80011619 heartbeat IPC: 4 cumulative IPC: 3.999 (Simulation time: 04 hr 33 min 04 sec)
Heartbeat CPU 6 instructions: 320000007 cycles: 80011822 heartbeat IPC: 4 cumulative IPC: 3.999 (Simulation time: 04 hr 33 min 04 sec)
Heartbeat CPU 7 instructions: 320000007 cycles: 80011955 heartbeat IPC: 4 cumulative IPC: 3.999 (Simulation time: 04 hr 33 min 04 sec)
Heartbeat CPU 2 instructions: 320000006 cycles: 80014465 heartbeat IPC: 4 cumulative IPC: 3.999 (Simulation time: 04 hr 33 min 04 sec)
Heartbeat CPU 4 instructions: 330000006 cycles: 82511533 heartbeat IPC: 4 cumulative IPC: 3.999 (Simulation time: 04 hr 40 min 32 sec)
Heartbeat CPU 3 instructions: 330000004 cycles: 82511607 heartbeat IPC: 4 cumulative IPC: 3.999 (Simulation time: 04 hr 40 min 32 sec)
Heartbeat CPU 5 instructions: 330000009 cycles: 82511619 heartbeat IPC: 4 cumulative IPC: 3.999 (Simulation time: 04 hr 40 min 32 sec)
Heartbeat CPU 6 instructions: 330000007 cycles: 82511822 heartbeat IPC: 4 cumulative IPC: 3.999 (Simulation time: 04 hr 40 min 33 sec)
Heartbeat CPU 7 instructions: 330000007 cycles: 82511955 heartbeat IPC: 4 cumulative IPC: 3.999 (Simulation time: 04 hr 40 min 33 sec)
Heartbeat CPU 2 instructions: 330000006 cycles: 82514465 heartbeat IPC: 4 cumulative IPC: 3.999 (Simulation time: 04 hr 40 min 33 sec)
Heartbeat CPU 1 instructions: 190000020 cycles: 82947000 heartbeat IPC: 2.491 cumulative IPC: 2.291 (Simulation time: 04 hr 42 min 10 sec)
Heartbeat CPU 0 instructions: 40000005 cycles: 84840022 heartbeat IPC: 0.4448 cumulative IPC: 0.4715 (Simulation time: 04 hr 49 min 09 sec)
Heartbeat CPU 4 instructions: 340000006 cycles: 85011533 heartbeat IPC: 4 cumulative IPC: 3.999 (Simulation time: 04 hr 49 min 48 sec)
Heartbeat CPU 3 instructions: 340000004 cycles: 85011607 heartbeat IPC: 4 cumulative IPC: 3.999 (Simulation time: 04 hr 49 min 48 sec)
Heartbeat CPU 5 instructions: 340000009 cycles: 85011619 heartbeat IPC: 4 cumulative IPC: 3.999 (Simulation time: 04 hr 49 min 48 sec)
Heartbeat CPU 6 instructions: 340000007 cycles: 85011822 heartbeat IPC: 4 cumulative IPC: 3.999 (Simulation time: 04 hr 49 min 49 sec)
Heartbeat CPU 7 instructions: 340000007 cycles: 85011955 heartbeat IPC: 4 cumulative IPC: 3.999 (Simulation time: 04 hr 49 min 49 sec)
Heartbeat CPU 2 instructions: 340000006 cycles: 85014465 heartbeat IPC: 4 cumulative IPC: 3.999 (Simulation time: 04 hr 49 min 49 sec)
Heartbeat CPU 1 instructions: 200000020 cycles: 87043640 heartbeat IPC: 2.441 cumulative IPC: 2.298 (Simulation time: 04 hr 57 min 03 sec)
Heartbeat CPU 4 instructions: 350000006 cycles: 87511533 heartbeat IPC: 4 cumulative IPC: 3.999 (Simulation time: 04 hr 58 min 50 sec)
Heartbeat CPU 3 instructions: 350000004 cycles: 87511607 heartbeat IPC: 4 cumulative IPC: 3.999 (Simulation time: 04 hr 58 min 50 sec)
Heartbeat CPU 5 instructions: 350000009 cycles: 87511619 heartbeat IPC: 4 cumulative IPC: 3.999 (Simulation time: 04 hr 58 min 50 sec)
Heartbeat CPU 6 instructions: 350000007 cycles: 87511822 heartbeat IPC: 4 cumulative IPC: 3.999 (Simulation time: 04 hr 58 min 50 sec)
Heartbeat CPU 7 instructions: 350000007 cycles: 87511955 heartbeat IPC: 4 cumulative IPC: 3.999 (Simulation time: 04 hr 58 min 50 sec)
Heartbeat CPU 2 instructions: 350000006 cycles: 87514465 heartbeat IPC: 4 cumulative IPC: 3.999 (Simulation time: 04 hr 58 min 51 sec)
Heartbeat CPU 4 instructions: 360000006 cycles: 90011533 heartbeat IPC: 4 cumulative IPC: 3.999 (Simulation time: 05 hr 07 min 41 sec)
Heartbeat CPU 3 instructions: 360000004 cycles: 90011607 heartbeat IPC: 4 cumulative IPC: 3.999 (Simulation time: 05 hr 07 min 41 sec)
Heartbeat CPU 5 instructions: 360000009 cycles: 90011619 heartbeat IPC: 4 cumulative IPC: 3.999 (Simulation time: 05 hr 07 min 41 sec)
Heartbeat CPU 6 instructions: 360000007 cycles: 90011822 heartbeat IPC: 4 cumulative IPC: 3.999 (Simulation time: 05 hr 07 min 41 sec)
Heartbeat CPU 7 instructions: 360000007 cycles: 90011955 heartbeat IPC: 4 cumulative IPC: 3.999 (Simulation time: 05 hr 07 min 41 sec)
Heartbeat CPU 2 instructions: 360000006 cycles: 90014465 heartbeat IPC: 4 cumulative IPC: 3.999 (Simulation time: 05 hr 07 min 41 sec)
*** Reached end of trace: (2, "/home/harshraj/COALESCE-Hashed-Perceptron-Cache-Replacement-Policy/simulator/traces/ocean_8t/ocean2.champsimtrace")
*** Reached end of trace: (5, "/home/harshraj/COALESCE-Hashed-Perceptron-Cache-Replacement-Policy/simulator/traces/ocean_8t/ocean5.champsimtrace")
*** Reached end of trace: (4, "/home/harshraj/COALESCE-Hashed-Perceptron-Cache-Replacement-Policy/simulator/traces/ocean_8t/ocean4.champsimtrace")
*** Reached end of trace: (6, "/home/harshraj/COALESCE-Hashed-Perceptron-Cache-Replacement-Policy/simulator/traces/ocean_8t/ocean6.champsimtrace")
*** Reached end of trace: (3, "/home/harshraj/COALESCE-Hashed-Perceptron-Cache-Replacement-Policy/simulator/traces/ocean_8t/ocean3.champsimtrace")
*** Reached end of trace: (7, "/home/harshraj/COALESCE-Hashed-Perceptron-Cache-Replacement-Policy/simulator/traces/ocean_8t/ocean7.champsimtrace")
Heartbeat CPU 1 instructions: 210000023 cycles: 91804916 heartbeat IPC: 2.1 cumulative IPC: 2.287 (Simulation time: 05 hr 13 min 20 sec)
Heartbeat CPU 4 instructions: 370000006 cycles: 92511533 heartbeat IPC: 4 cumulative IPC: 4 (Simulation time: 05 hr 15 min 57 sec)
Heartbeat CPU 3 instructions: 370000004 cycles: 92511607 heartbeat IPC: 4 cumulative IPC: 3.999 (Simulation time: 05 hr 15 min 57 sec)
Heartbeat CPU 5 instructions: 370000009 cycles: 92511619 heartbeat IPC: 4 cumulative IPC: 3.999 (Simulation time: 05 hr 15 min 57 sec)
Heartbeat CPU 6 instructions: 370000007 cycles: 92511822 heartbeat IPC: 4 cumulative IPC: 3.999 (Simulation time: 05 hr 15 min 57 sec)
Heartbeat CPU 7 instructions: 370000007 cycles: 92511955 heartbeat IPC: 4 cumulative IPC: 3.999 (Simulation time: 05 hr 15 min 57 sec)
Heartbeat CPU 2 instructions: 370000006 cycles: 92514465 heartbeat IPC: 4 cumulative IPC: 3.999 (Simulation time: 05 hr 15 min 58 sec)
Heartbeat CPU 4 instructions: 380000006 cycles: 95011533 heartbeat IPC: 4 cumulative IPC: 4 (Simulation time: 05 hr 25 min 06 sec)
Heartbeat CPU 3 instructions: 380000004 cycles: 95011607 heartbeat IPC: 4 cumulative IPC: 4 (Simulation time: 05 hr 25 min 06 sec)
Heartbeat CPU 5 instructions: 380000009 cycles: 95011619 heartbeat IPC: 4 cumulative IPC: 4 (Simulation time: 05 hr 25 min 06 sec)
Heartbeat CPU 6 instructions: 380000007 cycles: 95011822 heartbeat IPC: 4 cumulative IPC: 4 (Simulation time: 05 hr 25 min 06 sec)
Heartbeat CPU 7 instructions: 380000007 cycles: 95011955 heartbeat IPC: 4 cumulative IPC: 3.999 (Simulation time: 05 hr 25 min 07 sec)
Heartbeat CPU 2 instructions: 380000006 cycles: 95014465 heartbeat IPC: 4 cumulative IPC: 3.999 (Simulation time: 05 hr 25 min 07 sec)
Heartbeat CPU 1 instructions: 220000026 cycles: 96531335 heartbeat IPC: 2.116 cumulative IPC: 2.279 (Simulation time: 05 hr 30 min 35 sec)
Heartbeat CPU 4 instructions: 390000006 cycles: 97511533 heartbeat IPC: 4 cumulative IPC: 4 (Simulation time: 05 hr 33 min 21 sec)
Heartbeat CPU 3 instructions: 390000004 cycles: 97511607 heartbeat IPC: 4 cumulative IPC: 4 (Simulation time: 05 hr 33 min 21 sec)
Heartbeat CPU 5 instructions: 390000009 cycles: 97511619 heartbeat IPC: 4 cumulative IPC: 4 (Simulation time: 05 hr 33 min 21 sec)
Heartbeat CPU 6 instructions: 390000007 cycles: 97511822 heartbeat IPC: 4 cumulative IPC: 4 (Simulation time: 05 hr 33 min 21 sec)
Heartbeat CPU 7 instructions: 390000007 cycles: 97511955 heartbeat IPC: 4 cumulative IPC: 4 (Simulation time: 05 hr 33 min 21 sec)
Heartbeat CPU 2 instructions: 390000006 cycles: 97514465 heartbeat IPC: 4 cumulative IPC: 3.999 (Simulation time: 05 hr 33 min 22 sec)
*** Reached end of trace: (0, "/home/harshraj/COALESCE-Hashed-Perceptron-Cache-Replacement-Policy/simulator/traces/ocean_8t/ocean0.champsimtrace")
*** Reached end of trace: (1, "/home/harshraj/COALESCE-Hashed-Perceptron-Cache-Replacement-Policy/simulator/traces/ocean_8t/ocean1.champsimtrace")
Heartbeat CPU 4 instructions: 400000006 cycles: 100011533 heartbeat IPC: 4 cumulative IPC: 4 (Simulation time: 05 hr 39 min 16 sec)
Heartbeat CPU 3 instructions: 400000004 cycles: 100011607 heartbeat IPC: 4 cumulative IPC: 4 (Simulation time: 05 hr 39 min 16 sec)
Heartbeat CPU 5 instructions: 400000009 cycles: 100011619 heartbeat IPC: 4 cumulative IPC: 4 (Simulation time: 05 hr 39 min 16 sec)
Heartbeat CPU 6 instructions: 400000007 cycles: 100011822 heartbeat IPC: 4 cumulative IPC: 4 (Simulation time: 05 hr 39 min 16 sec)
Heartbeat CPU 7 instructions: 400000007 cycles: 100011955 heartbeat IPC: 4 cumulative IPC: 4 (Simulation time: 05 hr 39 min 16 sec)
Heartbeat CPU 2 instructions: 400000006 cycles: 100014465 heartbeat IPC: 4 cumulative IPC: 3.999 (Simulation time: 05 hr 39 min 16 sec)
Heartbeat CPU 1 instructions: 230000028 cycles: 100253538 heartbeat IPC: 2.687 cumulative IPC: 2.294 (Simulation time: 05 hr 39 min 50 sec)
*** Reached end of trace: (2, "/home/harshraj/COALESCE-Hashed-Perceptron-Cache-Replacement-Policy/simulator/traces/ocean_8t/ocean2.champsimtrace")
*** Reached end of trace: (5, "/home/harshraj/COALESCE-Hashed-Perceptron-Cache-Replacement-Policy/simulator/traces/ocean_8t/ocean5.champsimtrace")
*** Reached end of trace: (4, "/home/harshraj/COALESCE-Hashed-Perceptron-Cache-Replacement-Policy/simulator/traces/ocean_8t/ocean4.champsimtrace")
*** Reached end of trace: (6, "/home/harshraj/COALESCE-Hashed-Perceptron-Cache-Replacement-Policy/simulator/traces/ocean_8t/ocean6.champsimtrace")
*** Reached end of trace: (3, "/home/harshraj/COALESCE-Hashed-Perceptron-Cache-Replacement-Policy/simulator/traces/ocean_8t/ocean3.champsimtrace")
*** Reached end of trace: (7, "/home/harshraj/COALESCE-Hashed-Perceptron-Cache-Replacement-Policy/simulator/traces/ocean_8t/ocean7.champsimtrace")
Heartbeat CPU 4 instructions: 410000006 cycles: 102511533 heartbeat IPC: 4 cumulative IPC: 4 (Simulation time: 05 hr 47 min 19 sec)
Heartbeat CPU 3 instructions: 410000004 cycles: 102511607 heartbeat IPC: 4 cumulative IPC: 4 (Simulation time: 05 hr 47 min 19 sec)
Heartbeat CPU 5 instructions: 410000009 cycles: 102511619 heartbeat IPC: 4 cumulative IPC: 4 (Simulation time: 05 hr 47 min 19 sec)
Heartbeat CPU 6 instructions: 410000007 cycles: 102511822 heartbeat IPC: 4 cumulative IPC: 4 (Simulation time: 05 hr 47 min 19 sec)
Heartbeat CPU 7 instructions: 410000007 cycles: 102511955 heartbeat IPC: 4 cumulative IPC: 4 (Simulation time: 05 hr 47 min 19 sec)
Heartbeat CPU 2 instructions: 410000006 cycles: 102514465 heartbeat IPC: 4 cumulative IPC: 3.999 (Simulation time: 05 hr 47 min 20 sec)
Heartbeat CPU 1 instructions: 240000029 cycles: 104430381 heartbeat IPC: 2.394 cumulative IPC: 2.298 (Simulation time: 05 hr 54 min 03 sec)
Heartbeat CPU 4 instructions: 420000006 cycles: 105011533 heartbeat IPC: 4 cumulative IPC: 4 (Simulation time: 05 hr 55 min 52 sec)
Heartbeat CPU 3 instructions: 420000004 cycles: 105011607 heartbeat IPC: 4 cumulative IPC: 4 (Simulation time: 05 hr 55 min 52 sec)
Heartbeat CPU 5 instructions: 420000009 cycles: 105011619 heartbeat IPC: 4 cumulative IPC: 4 (Simulation time: 05 hr 55 min 52 sec)
Heartbeat CPU 6 instructions: 420000007 cycles: 105011822 heartbeat IPC: 4 cumulative IPC: 4 (Simulation time: 05 hr 55 min 52 sec)
Heartbeat CPU 7 instructions: 420000007 cycles: 105011955 heartbeat IPC: 4 cumulative IPC: 4 (Simulation time: 05 hr 55 min 52 sec)
Heartbeat CPU 2 instructions: 420000006 cycles: 105014465 heartbeat IPC: 4 cumulative IPC: 3.999 (Simulation time: 05 hr 55 min 52 sec)
Warmup finished CPU 0 instructions: 50000000 cycles: 106697473 cumulative IPC: 0.4686 (Simulation time: 06 hr 01 min 19 sec)
Warmup complete CPU 7 instructions: 426742079 cycles: 106697473 cumulative IPC: 4 (Simulation time: 06 hr 01 min 19 sec)
Warmup complete CPU 6 instructions: 426742611 cycles: 106697473 cumulative IPC: 4 (Simulation time: 06 hr 01 min 19 sec)
Warmup complete CPU 5 instructions: 426743425 cycles: 106697473 cumulative IPC: 4 (Simulation time: 06 hr 01 min 19 sec)
Warmup complete CPU 4 instructions: 426743766 cycles: 106697473 cumulative IPC: 4 (Simulation time: 06 hr 01 min 19 sec)
Warmup complete CPU 3 instructions: 426743468 cycles: 106697473 cumulative IPC: 4 (Simulation time: 06 hr 01 min 19 sec)
Warmup complete CPU 2 instructions: 426732038 cycles: 106697473 cumulative IPC: 3.999 (Simulation time: 06 hr 01 min 19 sec)
Warmup complete CPU 1 instructions: 245708409 cycles: 106697473 cumulative IPC: 2.303 (Simulation time: 06 hr 01 min 19 sec)
Warmup complete CPU 0 instructions: 50000000 cycles: 106697473 cumulative IPC: 0.4686 (Simulation time: 06 hr 01 min 19 sec)
Heartbeat CPU 0 instructions: 50000008 cycles: 106697669 heartbeat IPC: 0.4575 cumulative IPC: 0.04082 (Simulation time: 06 hr 01 min 19 sec)
Heartbeat CPU 4 instructions: 430000006 cycles: 107511533 heartbeat IPC: 4 cumulative IPC: 4 (Simulation time: 06 hr 03 min 34 sec)
Heartbeat CPU 3 instructions: 430000004 cycles: 107511607 heartbeat IPC: 4 cumulative IPC: 4 (Simulation time: 06 hr 03 min 34 sec)
Heartbeat CPU 5 instructions: 430000009 cycles: 107511619 heartbeat IPC: 4 cumulative IPC: 4 (Simulation time: 06 hr 03 min 34 sec)
Heartbeat CPU 6 instructions: 430000007 cycles: 107511822 heartbeat IPC: 4 cumulative IPC: 4 (Simulation time: 06 hr 03 min 35 sec)
Heartbeat CPU 7 instructions: 430000007 cycles: 107511955 heartbeat IPC: 4 cumulative IPC: 4 (Simulation time: 06 hr 03 min 35 sec)
Heartbeat CPU 2 instructions: 430000006 cycles: 107514465 heartbeat IPC: 4 cumulative IPC: 4 (Simulation time: 06 hr 03 min 35 sec)
Heartbeat CPU 4 instructions: 440000006 cycles: 110011533 heartbeat IPC: 4 cumulative IPC: 4 (Simulation time: 06 hr 11 min 03 sec)
Heartbeat CPU 3 instructions: 440000004 cycles: 110011607 heartbeat IPC: 4 cumulative IPC: 4 (Simulation time: 06 hr 11 min 03 sec)
Heartbeat CPU 5 instructions: 440000009 cycles: 110011619 heartbeat IPC: 4 cumulative IPC: 4 (Simulation time: 06 hr 11 min 03 sec)
Heartbeat CPU 6 instructions: 440000007 cycles: 110011822 heartbeat IPC: 4 cumulative IPC: 4 (Simulation time: 06 hr 11 min 03 sec)
Heartbeat CPU 7 instructions: 440000007 cycles: 110011955 heartbeat IPC: 4 cumulative IPC: 4 (Simulation time: 06 hr 11 min 03 sec)
Heartbeat CPU 2 instructions: 440000006 cycles: 110014465 heartbeat IPC: 4 cumulative IPC: 4 (Simulation time: 06 hr 11 min 04 sec)
Heartbeat CPU 4 instructions: 450000006 cycles: 112511533 heartbeat IPC: 4 cumulative IPC: 4 (Simulation time: 06 hr 18 min 53 sec)
Heartbeat CPU 3 instructions: 450000004 cycles: 112511607 heartbeat IPC: 4 cumulative IPC: 4 (Simulation time: 06 hr 18 min 53 sec)
Heartbeat CPU 5 instructions: 450000009 cycles: 112511619 heartbeat IPC: 4 cumulative IPC: 4 (Simulation time: 06 hr 18 min 53 sec)
Heartbeat CPU 6 instructions: 450000007 cycles: 112511822 heartbeat IPC: 4 cumulative IPC: 4 (Simulation time: 06 hr 18 min 53 sec)
Heartbeat CPU 7 instructions: 450000007 cycles: 112511955 heartbeat IPC: 4 cumulative IPC: 4 (Simulation time: 06 hr 18 min 53 sec)
Heartbeat CPU 2 instructions: 450000006 cycles: 112514465 heartbeat IPC: 4 cumulative IPC: 4 (Simulation time: 06 hr 18 min 53 sec)
*** Reached end of trace: (2, "/home/harshraj/COALESCE-Hashed-Perceptron-Cache-Replacement-Policy/simulator/traces/ocean_8t/ocean2.champsimtrace")
*** Reached end of trace: (5, "/home/harshraj/COALESCE-Hashed-Perceptron-Cache-Replacement-Policy/simulator/traces/ocean_8t/ocean5.champsimtrace")
*** Reached end of trace: (4, "/home/harshraj/COALESCE-Hashed-Perceptron-Cache-Replacement-Policy/simulator/traces/ocean_8t/ocean4.champsimtrace")
*** Reached end of trace: (6, "/home/harshraj/COALESCE-Hashed-Perceptron-Cache-Replacement-Policy/simulator/traces/ocean_8t/ocean6.champsimtrace")
*** Reached end of trace: (3, "/home/harshraj/COALESCE-Hashed-Perceptron-Cache-Replacement-Policy/simulator/traces/ocean_8t/ocean3.champsimtrace")
*** Reached end of trace: (7, "/home/harshraj/COALESCE-Hashed-Perceptron-Cache-Replacement-Policy/simulator/traces/ocean_8t/ocean7.champsimtrace")
Heartbeat CPU 4 instructions: 460000008 cycles: 115011575 heartbeat IPC: 4 cumulative IPC: 4 (Simulation time: 06 hr 25 min 00 sec)
Heartbeat CPU 3 instructions: 460000006 cycles: 115011622 heartbeat IPC: 4 cumulative IPC: 4 (Simulation time: 06 hr 25 min 00 sec)
Heartbeat CPU 5 instructions: 460000009 cycles: 115011646 heartbeat IPC: 4 cumulative IPC: 4 (Simulation time: 06 hr 25 min 00 sec)
Heartbeat CPU 6 instructions: 460000007 cycles: 115011849 heartbeat IPC: 4 cumulative IPC: 4 (Simulation time: 06 hr 25 min 00 sec)
Heartbeat CPU 7 instructions: 460000008 cycles: 115011986 heartbeat IPC: 4 cumulative IPC: 4 (Simulation time: 06 hr 25 min 00 sec)
Heartbeat CPU 2 instructions: 460000007 cycles: 115014508 heartbeat IPC: 4 cumulative IPC: 4 (Simulation time: 06 hr 25 min 00 sec)
Heartbeat CPU 4 instructions: 470000008 cycles: 117511575 heartbeat IPC: 4 cumulative IPC: 4 (Simulation time: 06 hr 30 min 40 sec)
Heartbeat CPU 3 instructions: 470000006 cycles: 117511622 heartbeat IPC: 4 cumulative IPC: 4 (Simulation time: 06 hr 30 min 40 sec)
Heartbeat CPU 5 instructions: 470000009 cycles: 117511646 heartbeat IPC: 4 cumulative IPC: 4 (Simulation time: 06 hr 30 min 40 sec)
Heartbeat CPU 6 instructions: 470000007 cycles: 117511849 heartbeat IPC: 4 cumulative IPC: 4 (Simulation time: 06 hr 30 min 40 sec)
Heartbeat CPU 7 instructions: 470000008 cycles: 117511986 heartbeat IPC: 4 cumulative IPC: 4 (Simulation time: 06 hr 30 min 40 sec)
Heartbeat CPU 2 instructions: 470000007 cycles: 117514508 heartbeat IPC: 4 cumulative IPC: 4 (Simulation time: 06 hr 30 min 40 sec)
Heartbeat CPU 4 instructions: 480000008 cycles: 120011575 heartbeat IPC: 4 cumulative IPC: 4 (Simulation time: 06 hr 39 min 08 sec)
Heartbeat CPU 3 instructions: 480000006 cycles: 120011622 heartbeat IPC: 4 cumulative IPC: 4 (Simulation time: 06 hr 39 min 08 sec)
Heartbeat CPU 5 instructions: 480000009 cycles: 120011646 heartbeat IPC: 4 cumulative IPC: 4 (Simulation time: 06 hr 39 min 08 sec)
Heartbeat CPU 6 instructions: 480000007 cycles: 120011849 heartbeat IPC: 4 cumulative IPC: 4 (Simulation time: 06 hr 39 min 08 sec)
Heartbeat CPU 7 instructions: 480000008 cycles: 120011986 heartbeat IPC: 4 cumulative IPC: 4 (Simulation time: 06 hr 39 min 08 sec)
Heartbeat CPU 2 instructions: 480000007 cycles: 120014508 heartbeat IPC: 4 cumulative IPC: 4 (Simulation time: 06 hr 39 min 08 sec)
Heartbeat CPU 1 instructions: 250000029 cycles: 120853201 heartbeat IPC: 0.6089 cumulative IPC: 0.3032 (Simulation time: 06 hr 42 min 00 sec)
Heartbeat CPU 4 instructions: 490000008 cycles: 122511575 heartbeat IPC: 4 cumulative IPC: 4 (Simulation time: 06 hr 47 min 01 sec)
Heartbeat CPU 3 instructions: 490000006 cycles: 122511622 heartbeat IPC: 4 cumulative IPC: 4 (Simulation time: 06 hr 47 min 01 sec)
Heartbeat CPU 5 instructions: 490000009 cycles: 122511646 heartbeat IPC: 4 cumulative IPC: 4 (Simulation time: 06 hr 47 min 01 sec)
Heartbeat CPU 6 instructions: 490000007 cycles: 122511849 heartbeat IPC: 4 cumulative IPC: 4 (Simulation time: 06 hr 47 min 01 sec)
Heartbeat CPU 7 instructions: 490000008 cycles: 122511986 heartbeat IPC: 4 cumulative IPC: 4 (Simulation time: 06 hr 47 min 01 sec)
Heartbeat CPU 2 instructions: 490000007 cycles: 122514508 heartbeat IPC: 4 cumulative IPC: 4 (Simulation time: 06 hr 47 min 01 sec)
*** Reached end of trace: (2, "/home/harshraj/COALESCE-Hashed-Perceptron-Cache-Replacement-Policy/simulator/traces/ocean_8t/ocean2.champsimtrace")
*** Reached end of trace: (5, "/home/harshraj/COALESCE-Hashed-Perceptron-Cache-Replacement-Policy/simulator/traces/ocean_8t/ocean5.champsimtrace")
*** Reached end of trace: (4, "/home/harshraj/COALESCE-Hashed-Perceptron-Cache-Replacement-Policy/simulator/traces/ocean_8t/ocean4.champsimtrace")
*** Reached end of trace: (6, "/home/harshraj/COALESCE-Hashed-Perceptron-Cache-Replacement-Policy/simulator/traces/ocean_8t/ocean6.champsimtrace")
*** Reached end of trace: (3, "/home/harshraj/COALESCE-Hashed-Perceptron-Cache-Replacement-Policy/simulator/traces/ocean_8t/ocean3.champsimtrace")
Heartbeat CPU 4 instructions: 500000009 cycles: 125011608 heartbeat IPC: 4 cumulative IPC: 4 (Simulation time: 06 hr 55 min 46 sec)
Heartbeat CPU 3 instructions: 500000009 cycles: 125011637 heartbeat IPC: 4 cumulative IPC: 4 (Simulation time: 06 hr 55 min 46 sec)
Heartbeat CPU 5 instructions: 500000009 cycles: 125011667 heartbeat IPC: 4 cumulative IPC: 4 (Simulation time: 06 hr 55 min 46 sec)
Heartbeat CPU 6 instructions: 500000008 cycles: 125011882 heartbeat IPC: 4 cumulative IPC: 4 (Simulation time: 06 hr 55 min 46 sec)
Heartbeat CPU 7 instructions: 500000008 cycles: 125011986 heartbeat IPC: 4 cumulative IPC: 4 (Simulation time: 06 hr 55 min 46 sec)
Heartbeat CPU 2 instructions: 500000008 cycles: 125014551 heartbeat IPC: 4 cumulative IPC: 4 (Simulation time: 06 hr 55 min 46 sec)
*** Reached end of trace: (7, "/home/harshraj/COALESCE-Hashed-Perceptron-Cache-Replacement-Policy/simulator/traces/ocean_8t/ocean7.champsimtrace")
Heartbeat CPU 4 instructions: 510000009 cycles: 127511608 heartbeat IPC: 4 cumulative IPC: 4 (Simulation time: 07 hr 02 min 38 sec)
Heartbeat CPU 3 instructions: 510000009 cycles: 127511637 heartbeat IPC: 4 cumulative IPC: 4 (Simulation time: 07 hr 02 min 38 sec)
Heartbeat CPU 5 instructions: 510000009 cycles: 127511667 heartbeat IPC: 4 cumulative IPC: 4 (Simulation time: 07 hr 02 min 38 sec)
Heartbeat CPU 6 instructions: 510000008 cycles: 127511882 heartbeat IPC: 4 cumulative IPC: 4 (Simulation time: 07 hr 02 min 38 sec)
Heartbeat CPU 7 instructions: 510000010 cycles: 127512018 heartbeat IPC: 4 cumulative IPC: 4 (Simulation time: 07 hr 02 min 38 sec)
Heartbeat CPU 2 instructions: 510000008 cycles: 127514551 heartbeat IPC: 4 cumulative IPC: 4 (Simulation time: 07 hr 02 min 38 sec)
Heartbeat CPU 4 instructions: 520000009 cycles: 130011608 heartbeat IPC: 4 cumulative IPC: 4 (Simulation time: 07 hr 08 min 52 sec)
Heartbeat CPU 3 instructions: 520000009 cycles: 130011637 heartbeat IPC: 4 cumulative IPC: 4 (Simulation time: 07 hr 08 min 52 sec)
Heartbeat CPU 5 instructions: 520000009 cycles: 130011667 heartbeat IPC: 4 cumulative IPC: 4 (Simulation time: 07 hr 08 min 52 sec)
Heartbeat CPU 6 instructions: 520000008 cycles: 130011882 heartbeat IPC: 4 cumulative IPC: 4 (Simulation time: 07 hr 08 min 52 sec)
Heartbeat CPU 7 instructions: 520000010 cycles: 130012018 heartbeat IPC: 4 cumulative IPC: 4 (Simulation time: 07 hr 08 min 52 sec)
Heartbeat CPU 2 instructions: 520000008 cycles: 130014551 heartbeat IPC: 4 cumulative IPC: 4 (Simulation time: 07 hr 08 min 52 sec)
Simulation finished CPU 3 instructions: 100000001 cycles: 25000029 cumulative IPC: 4 (Simulation time: 07 hr 13 min 07 sec)
Simulation finished CPU 5 instructions: 100000000 cycles: 25000048 cumulative IPC: 4 (Simulation time: 07 hr 13 min 07 sec)
Simulation finished CPU 6 instructions: 100000001 cycles: 25000060 cumulative IPC: 4 (Simulation time: 07 hr 13 min 07 sec)
Simulation finished CPU 7 instructions: 100000003 cycles: 25000063 cumulative IPC: 4 (Simulation time: 07 hr 13 min 07 sec)
Simulation finished CPU 4 instructions: 100000003 cycles: 25000075 cumulative IPC: 4 (Simulation time: 07 hr 13 min 07 sec)
Simulation finished CPU 2 instructions: 100000002 cycles: 25000086 cumulative IPC: 4 (Simulation time: 07 hr 13 min 07 sec)
Heartbeat CPU 4 instructions: 530000009 cycles: 132511608 heartbeat IPC: 4 cumulative IPC: 4 (Simulation time: 07 hr 15 min 02 sec)
Heartbeat CPU 3 instructions: 530000009 cycles: 132511637 heartbeat IPC: 4 cumulative IPC: 4 (Simulation time: 07 hr 15 min 02 sec)
Heartbeat CPU 5 instructions: 530000009 cycles: 132511667 heartbeat IPC: 4 cumulative IPC: 4 (Simulation time: 07 hr 15 min 02 sec)
Heartbeat CPU 6 instructions: 530000008 cycles: 132511882 heartbeat IPC: 4 cumulative IPC: 4 (Simulation time: 07 hr 15 min 02 sec)
Heartbeat CPU 7 instructions: 530000010 cycles: 132512018 heartbeat IPC: 4 cumulative IPC: 4 (Simulation time: 07 hr 15 min 02 sec)
Heartbeat CPU 2 instructions: 530000008 cycles: 132514551 heartbeat IPC: 4 cumulative IPC: 4 (Simulation time: 07 hr 15 min 02 sec)
Heartbeat CPU 4 instructions: 540000009 cycles: 135011608 heartbeat IPC: 4 cumulative IPC: 4 (Simulation time: 07 hr 21 min 38 sec)
Heartbeat CPU 3 instructions: 540000009 cycles: 135011637 heartbeat IPC: 4 cumulative IPC: 4 (Simulation time: 07 hr 21 min 38 sec)
Heartbeat CPU 5 instructions: 540000009 cycles: 135011667 heartbeat IPC: 4 cumulative IPC: 4 (Simulation time: 07 hr 21 min 38 sec)
Heartbeat CPU 6 instructions: 540000008 cycles: 135011882 heartbeat IPC: 4 cumulative IPC: 4 (Simulation time: 07 hr 21 min 38 sec)
Heartbeat CPU 7 instructions: 540000010 cycles: 135012018 heartbeat IPC: 4 cumulative IPC: 4 (Simulation time: 07 hr 21 min 38 sec)
Heartbeat CPU 2 instructions: 540000008 cycles: 135014551 heartbeat IPC: 4 cumulative IPC: 4 (Simulation time: 07 hr 21 min 38 sec)
*** Reached end of trace: (2, "/home/harshraj/COALESCE-Hashed-Perceptron-Cache-Replacement-Policy/simulator/traces/ocean_8t/ocean2.champsimtrace")
*** Reached end of trace: (5, "/home/harshraj/COALESCE-Hashed-Perceptron-Cache-Replacement-Policy/simulator/traces/ocean_8t/ocean5.champsimtrace")
*** Reached end of trace: (4, "/home/harshraj/COALESCE-Hashed-Perceptron-Cache-Replacement-Policy/simulator/traces/ocean_8t/ocean4.champsimtrace")
*** Reached end of trace: (6, "/home/harshraj/COALESCE-Hashed-Perceptron-Cache-Replacement-Policy/simulator/traces/ocean_8t/ocean6.champsimtrace")
*** Reached end of trace: (3, "/home/harshraj/COALESCE-Hashed-Perceptron-Cache-Replacement-Policy/simulator/traces/ocean_8t/ocean3.champsimtrace")
*** Reached end of trace: (7, "/home/harshraj/COALESCE-Hashed-Perceptron-Cache-Replacement-Policy/simulator/traces/ocean_8t/ocean7.champsimtrace")
Heartbeat CPU 4 instructions: 550000010 cycles: 137511641 heartbeat IPC: 4 cumulative IPC: 4 (Simulation time: 07 hr 28 min 55 sec)
Heartbeat CPU 3 instructions: 550000012 cycles: 137511652 heartbeat IPC: 4 cumulative IPC: 4 (Simulation time: 07 hr 28 min 55 sec)
Heartbeat CPU 5 instructions: 550000009 cycles: 137511688 heartbeat IPC: 4 cumulative IPC: 4 (Simulation time: 07 hr 28 min 55 sec)
Heartbeat CPU 6 instructions: 550000009 cycles: 137511915 heartbeat IPC: 4 cumulative IPC: 4 (Simulation time: 07 hr 28 min 55 sec)
Heartbeat CPU 7 instructions: 550000012 cycles: 137512050 heartbeat IPC: 4 cumulative IPC: 4 (Simulation time: 07 hr 28 min 55 sec)
Heartbeat CPU 2 instructions: 550000009 cycles: 137514594 heartbeat IPC: 4 cumulative IPC: 4 (Simulation time: 07 hr 28 min 56 sec)
Heartbeat CPU 4 instructions: 560000010 cycles: 140011641 heartbeat IPC: 4 cumulative IPC: 4 (Simulation time: 07 hr 35 min 31 sec)
Heartbeat CPU 3 instructions: 560000012 cycles: 140011652 heartbeat IPC: 4 cumulative IPC: 4 (Simulation time: 07 hr 35 min 31 sec)
Heartbeat CPU 5 instructions: 560000009 cycles: 140011688 heartbeat IPC: 4 cumulative IPC: 4 (Simulation time: 07 hr 35 min 31 sec)
Heartbeat CPU 6 instructions: 560000009 cycles: 140011915 heartbeat IPC: 4 cumulative IPC: 4 (Simulation time: 07 hr 35 min 31 sec)
Heartbeat CPU 7 instructions: 560000012 cycles: 140012050 heartbeat IPC: 4 cumulative IPC: 4 (Simulation time: 07 hr 35 min 31 sec)
Heartbeat CPU 2 instructions: 560000009 cycles: 140014594 heartbeat IPC: 4 cumulative IPC: 4 (Simulation time: 07 hr 35 min 31 sec)
Heartbeat CPU 4 instructions: 570000010 cycles: 142511641 heartbeat IPC: 4 cumulative IPC: 4 (Simulation time: 07 hr 43 min 33 sec)
Heartbeat CPU 3 instructions: 570000012 cycles: 142511652 heartbeat IPC: 4 cumulative IPC: 4 (Simulation time: 07 hr 43 min 33 sec)
Heartbeat CPU 5 instructions: 570000009 cycles: 142511688 heartbeat IPC: 4 cumulative IPC: 4 (Simulation time: 07 hr 43 min 33 sec)
Heartbeat CPU 6 instructions: 570000009 cycles: 142511915 heartbeat IPC: 4 cumulative IPC: 4 (Simulation time: 07 hr 43 min 33 sec)
Heartbeat CPU 7 instructions: 570000012 cycles: 142512050 heartbeat IPC: 4 cumulative IPC: 4 (Simulation time: 07 hr 43 min 33 sec)
Heartbeat CPU 2 instructions: 570000009 cycles: 142514594 heartbeat IPC: 4 cumulative IPC: 4 (Simulation time: 07 hr 43 min 33 sec)
Heartbeat CPU 4 instructions: 580000010 cycles: 145011641 heartbeat IPC: 4 cumulative IPC: 4 (Simulation time: 07 hr 49 min 43 sec)
Heartbeat CPU 3 instructions: 580000012 cycles: 145011652 heartbeat IPC: 4 cumulative IPC: 4 (Simulation time: 07 hr 49 min 43 sec)
Heartbeat CPU 5 instructions: 580000009 cycles: 145011688 heartbeat IPC: 4 cumulative IPC: 4 (Simulation time: 07 hr 49 min 43 sec)
Heartbeat CPU 6 instructions: 580000009 cycles: 145011915 heartbeat IPC: 4 cumulative IPC: 4 (Simulation time: 07 hr 49 min 43 sec)
Heartbeat CPU 7 instructions: 580000012 cycles: 145012050 heartbeat IPC: 4 cumulative IPC: 4 (Simulation time: 07 hr 49 min 43 sec)
Heartbeat CPU 2 instructions: 580000009 cycles: 145014594 heartbeat IPC: 4 cumulative IPC: 4 (Simulation time: 07 hr 49 min 44 sec)
*** Reached end of trace: (2, "/home/harshraj/COALESCE-Hashed-Perceptron-Cache-Replacement-Policy/simulator/traces/ocean_8t/ocean2.champsimtrace")
*** Reached end of trace: (5, "/home/harshraj/COALESCE-Hashed-Perceptron-Cache-Replacement-Policy/simulator/traces/ocean_8t/ocean5.champsimtrace")
*** Reached end of trace: (4, "/home/harshraj/COALESCE-Hashed-Perceptron-Cache-Replacement-Policy/simulator/traces/ocean_8t/ocean4.champsimtrace")
*** Reached end of trace: (6, "/home/harshraj/COALESCE-Hashed-Perceptron-Cache-Replacement-Policy/simulator/traces/ocean_8t/ocean6.champsimtrace")
Heartbeat CPU 3 instructions: 590000012 cycles: 147511652 heartbeat IPC: 4 cumulative IPC: 4 (Simulation time: 07 hr 56 min 20 sec)
Heartbeat CPU 4 instructions: 590000011 cycles: 147511674 heartbeat IPC: 4 cumulative IPC: 4 (Simulation time: 07 hr 56 min 20 sec)
Heartbeat CPU 5 instructions: 590000009 cycles: 147511709 heartbeat IPC: 4 cumulative IPC: 4 (Simulation time: 07 hr 56 min 20 sec)
Heartbeat CPU 6 instructions: 590000010 cycles: 147511948 heartbeat IPC: 4 cumulative IPC: 4 (Simulation time: 07 hr 56 min 20 sec)
Heartbeat CPU 7 instructions: 590000012 cycles: 147512050 heartbeat IPC: 4 cumulative IPC: 4 (Simulation time: 07 hr 56 min 20 sec)
Heartbeat CPU 2 instructions: 590000010 cycles: 147514637 heartbeat IPC: 4 cumulative IPC: 4 (Simulation time: 07 hr 56 min 20 sec)
*** Reached end of trace: (3, "/home/harshraj/COALESCE-Hashed-Perceptron-Cache-Replacement-Policy/simulator/traces/ocean_8t/ocean3.champsimtrace")
*** Reached end of trace: (7, "/home/harshraj/COALESCE-Hashed-Perceptron-Cache-Replacement-Policy/simulator/traces/ocean_8t/ocean7.champsimtrace")
Heartbeat CPU 3 instructions: 600000015 cycles: 150011667 heartbeat IPC: 4 cumulative IPC: 4 (Simulation time: 08 hr 03 min 46 sec)
Heartbeat CPU 4 instructions: 600000011 cycles: 150011674 heartbeat IPC: 4 cumulative IPC: 4 (Simulation time: 08 hr 03 min 46 sec)
Heartbeat CPU 5 instructions: 600000009 cycles: 150011709 heartbeat IPC: 4 cumulative IPC: 4 (Simulation time: 08 hr 03 min 46 sec)
Heartbeat CPU 6 instructions: 600000010 cycles: 150011948 heartbeat IPC: 4 cumulative IPC: 4 (Simulation time: 08 hr 03 min 46 sec)
Heartbeat CPU 7 instructions: 600000014 cycles: 150012082 heartbeat IPC: 4 cumulative IPC: 4 (Simulation time: 08 hr 03 min 46 sec)
Heartbeat CPU 2 instructions: 600000010 cycles: 150014637 heartbeat IPC: 4 cumulative IPC: 4 (Simulation time: 08 hr 03 min 47 sec)
Heartbeat CPU 3 instructions: 610000015 cycles: 152511667 heartbeat IPC: 4 cumulative IPC: 4 (Simulation time: 08 hr 09 min 45 sec)
Heartbeat CPU 4 instructions: 610000011 cycles: 152511674 heartbeat IPC: 4 cumulative IPC: 4 (Simulation time: 08 hr 09 min 45 sec)
Heartbeat CPU 5 instructions: 610000009 cycles: 152511709 heartbeat IPC: 4 cumulative IPC: 4 (Simulation time: 08 hr 09 min 45 sec)
Heartbeat CPU 6 instructions: 610000010 cycles: 152511948 heartbeat IPC: 4 cumulative IPC: 4 (Simulation time: 08 hr 09 min 45 sec)
Heartbeat CPU 7 instructions: 610000014 cycles: 152512082 heartbeat IPC: 4 cumulative IPC: 4 (Simulation time: 08 hr 09 min 45 sec)
Heartbeat CPU 2 instructions: 610000010 cycles: 152514637 heartbeat IPC: 4 cumulative IPC: 4 (Simulation time: 08 hr 09 min 45 sec)
Heartbeat CPU 3 instructions: 620000015 cycles: 155011667 heartbeat IPC: 4 cumulative IPC: 4 (Simulation time: 08 hr 18 min 00 sec)
Heartbeat CPU 4 instructions: 620000011 cycles: 155011674 heartbeat IPC: 4 cumulative IPC: 4 (Simulation time: 08 hr 18 min 00 sec)
Heartbeat CPU 5 instructions: 620000009 cycles: 155011709 heartbeat IPC: 4 cumulative IPC: 4 (Simulation time: 08 hr 18 min 00 sec)
Heartbeat CPU 6 instructions: 620000010 cycles: 155011948 heartbeat IPC: 4 cumulative IPC: 4 (Simulation time: 08 hr 18 min 00 sec)
Heartbeat CPU 7 instructions: 620000014 cycles: 155012082 heartbeat IPC: 4 cumulative IPC: 4 (Simulation time: 08 hr 18 min 00 sec)
Heartbeat CPU 2 instructions: 620000010 cycles: 155014637 heartbeat IPC: 4 cumulative IPC: 4 (Simulation time: 08 hr 18 min 00 sec)
Heartbeat CPU 0 instructions: 60000012 cycles: 156175203 heartbeat IPC: 0.2021 cumulative IPC: 0.2021 (Simulation time: 08 hr 21 min 09 sec)
Heartbeat CPU 3 instructions: 630000015 cycles: 157511667 heartbeat IPC: 4 cumulative IPC: 4 (Simulation time: 08 hr 25 min 00 sec)
Heartbeat CPU 4 instructions: 630000011 cycles: 157511674 heartbeat IPC: 4 cumulative IPC: 4 (Simulation time: 08 hr 25 min 00 sec)
Heartbeat CPU 5 instructions: 630000009 cycles: 157511709 heartbeat IPC: 4 cumulative IPC: 4 (Simulation time: 08 hr 25 min 00 sec)
Heartbeat CPU 6 instructions: 630000010 cycles: 157511948 heartbeat IPC: 4 cumulative IPC: 4 (Simulation time: 08 hr 25 min 00 sec)
Heartbeat CPU 7 instructions: 630000014 cycles: 157512082 heartbeat IPC: 4 cumulative IPC: 4 (Simulation time: 08 hr 25 min 00 sec)
Heartbeat CPU 2 instructions: 630000010 cycles: 157514637 heartbeat IPC: 4 cumulative IPC: 4 (Simulation time: 08 hr 25 min 00 sec)
*** Reached end of trace: (2, "/home/harshraj/COALESCE-Hashed-Perceptron-Cache-Replacement-Policy/simulator/traces/ocean_8t/ocean2.champsimtrace")
*** Reached end of trace: (5, "/home/harshraj/COALESCE-Hashed-Perceptron-Cache-Replacement-Policy/simulator/traces/ocean_8t/ocean5.champsimtrace")
*** Reached end of trace: (4, "/home/harshraj/COALESCE-Hashed-Perceptron-Cache-Replacement-Policy/simulator/traces/ocean_8t/ocean4.champsimtrace")
*** Reached end of trace: (6, "/home/harshraj/COALESCE-Hashed-Perceptron-Cache-Replacement-Policy/simulator/traces/ocean_8t/ocean6.champsimtrace")
*** Reached end of trace: (3, "/home/harshraj/COALESCE-Hashed-Perceptron-Cache-Replacement-Policy/simulator/traces/ocean_8t/ocean3.champsimtrace")
*** Reached end of trace: (7, "/home/harshraj/COALESCE-Hashed-Perceptron-Cache-Replacement-Policy/simulator/traces/ocean_8t/ocean7.champsimtrace")
Heartbeat CPU 3 instructions: 640000018 cycles: 160011682 heartbeat IPC: 4 cumulative IPC: 4 (Simulation time: 08 hr 31 min 57 sec)
Heartbeat CPU 4 instructions: 640000012 cycles: 160011707 heartbeat IPC: 4 cumulative IPC: 4 (Simulation time: 08 hr 31 min 57 sec)
Heartbeat CPU 5 instructions: 640000009 cycles: 160011730 heartbeat IPC: 4 cumulative IPC: 4 (Simulation time: 08 hr 31 min 57 sec)
Heartbeat CPU 6 instructions: 640000011 cycles: 160011981 heartbeat IPC: 4 cumulative IPC: 4 (Simulation time: 08 hr 31 min 57 sec)
Heartbeat CPU 7 instructions: 640000016 cycles: 160012114 heartbeat IPC: 4 cumulative IPC: 4 (Simulation time: 08 hr 31 min 57 sec)
Heartbeat CPU 2 instructions: 640000011 cycles: 160014680 heartbeat IPC: 4 cumulative IPC: 4 (Simulation time: 08 hr 31 min 58 sec)
Heartbeat CPU 3 instructions: 650000018 cycles: 162511682 heartbeat IPC: 4 cumulative IPC: 4 (Simulation time: 08 hr 40 min 28 sec)
Heartbeat CPU 4 instructions: 650000012 cycles: 162511707 heartbeat IPC: 4 cumulative IPC: 4 (Simulation time: 08 hr 40 min 28 sec)
Heartbeat CPU 5 instructions: 650000009 cycles: 162511730 heartbeat IPC: 4 cumulative IPC: 4 (Simulation time: 08 hr 40 min 28 sec)
Heartbeat CPU 6 instructions: 650000011 cycles: 162511981 heartbeat IPC: 4 cumulative IPC: 4 (Simulation time: 08 hr 40 min 28 sec)
Heartbeat CPU 7 instructions: 650000016 cycles: 162512114 heartbeat IPC: 4 cumulative IPC: 4 (Simulation time: 08 hr 40 min 28 sec)
Heartbeat CPU 2 instructions: 650000011 cycles: 162514680 heartbeat IPC: 4 cumulative IPC: 4 (Simulation time: 08 hr 40 min 29 sec)
Heartbeat CPU 1 instructions: 260000030 cycles: 163627771 heartbeat IPC: 0.2338 cumulative IPC: 0.251 (Simulation time: 08 hr 43 min 43 sec)
Heartbeat CPU 3 instructions: 660000018 cycles: 165011682 heartbeat IPC: 4 cumulative IPC: 4 (Simulation time: 08 hr 47 min 00 sec)
Heartbeat CPU 4 instructions: 660000012 cycles: 165011707 heartbeat IPC: 4 cumulative IPC: 4 (Simulation time: 08 hr 47 min 00 sec)
Heartbeat CPU 5 instructions: 660000009 cycles: 165011730 heartbeat IPC: 4 cumulative IPC: 4 (Simulation time: 08 hr 47 min 00 sec)
Heartbeat CPU 6 instructions: 660000011 cycles: 165011981 heartbeat IPC: 4 cumulative IPC: 4 (Simulation time: 08 hr 47 min 00 sec)
Heartbeat CPU 7 instructions: 660000016 cycles: 165012114 heartbeat IPC: 4 cumulative IPC: 4 (Simulation time: 08 hr 47 min 00 sec)
Heartbeat CPU 2 instructions: 660000011 cycles: 165014680 heartbeat IPC: 4 cumulative IPC: 4 (Simulation time: 08 hr 47 min 00 sec)
Heartbeat CPU 3 instructions: 670000018 cycles: 167511682 heartbeat IPC: 4 cumulative IPC: 4 (Simulation time: 08 hr 54 min 10 sec)
Heartbeat CPU 4 instructions: 670000012 cycles: 167511707 heartbeat IPC: 4 cumulative IPC: 4 (Simulation time: 08 hr 54 min 10 sec)
Heartbeat CPU 5 instructions: 670000009 cycles: 167511730 heartbeat IPC: 4 cumulative IPC: 4 (Simulation time: 08 hr 54 min 10 sec)
Heartbeat CPU 6 instructions: 670000011 cycles: 167511981 heartbeat IPC: 4 cumulative IPC: 4 (Simulation time: 08 hr 54 min 10 sec)
Heartbeat CPU 7 instructions: 670000016 cycles: 167512114 heartbeat IPC: 4 cumulative IPC: 4 (Simulation time: 08 hr 54 min 10 sec)
Heartbeat CPU 2 instructions: 670000011 cycles: 167514680 heartbeat IPC: 4 cumulative IPC: 4 (Simulation time: 08 hr 54 min 11 sec)
*** Reached end of trace: (2, "/home/harshraj/COALESCE-Hashed-Perceptron-Cache-Replacement-Policy/simulator/traces/ocean_8t/ocean2.champsimtrace")
*** Reached end of trace: (5, "/home/harshraj/COALESCE-Hashed-Perceptron-Cache-Replacement-Policy/simulator/traces/ocean_8t/ocean5.champsimtrace")
*** Reached end of trace: (4, "/home/harshraj/COALESCE-Hashed-Perceptron-Cache-Replacement-Policy/simulator/traces/ocean_8t/ocean4.champsimtrace")
*** Reached end of trace: (6, "/home/harshraj/COALESCE-Hashed-Perceptron-Cache-Replacement-Policy/simulator/traces/ocean_8t/ocean6.champsimtrace")
Heartbeat CPU 3 instructions: 680000018 cycles: 170011682 heartbeat IPC: 4 cumulative IPC: 4 (Simulation time: 09 hr 00 min 33 sec)
Heartbeat CPU 4 instructions: 680000013 cycles: 170011740 heartbeat IPC: 4 cumulative IPC: 4 (Simulation time: 09 hr 00 min 33 sec)
Heartbeat CPU 5 instructions: 680000009 cycles: 170011751 heartbeat IPC: 4 cumulative IPC: 4 (Simulation time: 09 hr 00 min 33 sec)
Heartbeat CPU 6 instructions: 680000012 cycles: 170012014 heartbeat IPC: 4 cumulative IPC: 4 (Simulation time: 09 hr 00 min 33 sec)
Heartbeat CPU 7 instructions: 680000016 cycles: 170012114 heartbeat IPC: 4 cumulative IPC: 4 (Simulation time: 09 hr 00 min 33 sec)
Heartbeat CPU 2 instructions: 680000012 cycles: 170014723 heartbeat IPC: 4 cumulative IPC: 4 (Simulation time: 09 hr 00 min 33 sec)
*** Reached end of trace: (3, "/home/harshraj/COALESCE-Hashed-Perceptron-Cache-Replacement-Policy/simulator/traces/ocean_8t/ocean3.champsimtrace")
*** Reached end of trace: (7, "/home/harshraj/COALESCE-Hashed-Perceptron-Cache-Replacement-Policy/simulator/traces/ocean_8t/ocean7.champsimtrace")
Heartbeat CPU 3 instructions: 690000021 cycles: 172511697 heartbeat IPC: 4 cumulative IPC: 4 (Simulation time: 09 hr 07 min 01 sec)
Heartbeat CPU 4 instructions: 690000013 cycles: 172511740 heartbeat IPC: 4 cumulative IPC: 4 (Simulation time: 09 hr 07 min 01 sec)
Heartbeat CPU 5 instructions: 690000009 cycles: 172511751 heartbeat IPC: 4 cumulative IPC: 4 (Simulation time: 09 hr 07 min 01 sec)
Heartbeat CPU 6 instructions: 690000012 cycles: 172512014 heartbeat IPC: 4 cumulative IPC: 4 (Simulation time: 09 hr 07 min 01 sec)
Heartbeat CPU 7 instructions: 690000018 cycles: 172512146 heartbeat IPC: 4 cumulative IPC: 4 (Simulation time: 09 hr 07 min 01 sec)
Heartbeat CPU 2 instructions: 690000012 cycles: 172514723 heartbeat IPC: 4 cumulative IPC: 4 (Simulation time: 09 hr 07 min 02 sec)
Heartbeat CPU 3 instructions: 700000021 cycles: 175011697 heartbeat IPC: 4 cumulative IPC: 4 (Simulation time: 09 hr 12 min 56 sec)
Heartbeat CPU 4 instructions: 700000013 cycles: 175011740 heartbeat IPC: 4 cumulative IPC: 4 (Simulation time: 09 hr 12 min 56 sec)
Heartbeat CPU 5 instructions: 700000009 cycles: 175011751 heartbeat IPC: 4 cumulative IPC: 4 (Simulation time: 09 hr 12 min 56 sec)
Heartbeat CPU 6 instructions: 700000012 cycles: 175012014 heartbeat IPC: 4 cumulative IPC: 4 (Simulation time: 09 hr 12 min 56 sec)
Heartbeat CPU 7 instructions: 700000018 cycles: 175012146 heartbeat IPC: 4 cumulative IPC: 4 (Simulation time: 09 hr 12 min 56 sec)
Heartbeat CPU 2 instructions: 700000012 cycles: 175014723 heartbeat IPC: 4 cumulative IPC: 4 (Simulation time: 09 hr 12 min 57 sec)
Heartbeat CPU 3 instructions: 710000021 cycles: 177511697 heartbeat IPC: 4 cumulative IPC: 4 (Simulation time: 09 hr 20 min 06 sec)
Heartbeat CPU 4 instructions: 710000013 cycles: 177511740 heartbeat IPC: 4 cumulative IPC: 4 (Simulation time: 09 hr 20 min 06 sec)
Heartbeat CPU 5 instructions: 710000009 cycles: 177511751 heartbeat IPC: 4 cumulative IPC: 4 (Simulation time: 09 hr 20 min 06 sec)
Heartbeat CPU 6 instructions: 710000012 cycles: 177512014 heartbeat IPC: 4 cumulative IPC: 4 (Simulation time: 09 hr 20 min 06 sec)
Heartbeat CPU 7 instructions: 710000018 cycles: 177512146 heartbeat IPC: 4 cumulative IPC: 4 (Simulation time: 09 hr 20 min 06 sec)
Heartbeat CPU 2 instructions: 710000012 cycles: 177514723 heartbeat IPC: 4 cumulative IPC: 4 (Simulation time: 09 hr 20 min 07 sec)
Heartbeat CPU 3 instructions: 720000021 cycles: 180011697 heartbeat IPC: 4 cumulative IPC: 4 (Simulation time: 09 hr 28 min 33 sec)
Heartbeat CPU 4 instructions: 720000013 cycles: 180011740 heartbeat IPC: 4 cumulative IPC: 4 (Simulation time: 09 hr 28 min 33 sec)
Heartbeat CPU 5 instructions: 720000009 cycles: 180011751 heartbeat IPC: 4 cumulative IPC: 4 (Simulation time: 09 hr 28 min 33 sec)
Heartbeat CPU 6 instructions: 720000012 cycles: 180012014 heartbeat IPC: 4 cumulative IPC: 4 (Simulation time: 09 hr 28 min 33 sec)
Heartbeat CPU 7 instructions: 720000018 cycles: 180012146 heartbeat IPC: 4 cumulative IPC: 4 (Simulation time: 09 hr 28 min 33 sec)
Heartbeat CPU 2 instructions: 720000012 cycles: 180014723 heartbeat IPC: 4 cumulative IPC: 4 (Simulation time: 09 hr 28 min 34 sec)
*** Reached end of trace: (2, "/home/harshraj/COALESCE-Hashed-Perceptron-Cache-Replacement-Policy/simulator/traces/ocean_8t/ocean2.champsimtrace")
*** Reached end of trace: (5, "/home/harshraj/COALESCE-Hashed-Perceptron-Cache-Replacement-Policy/simulator/traces/ocean_8t/ocean5.champsimtrace")
*** Reached end of trace: (4, "/home/harshraj/COALESCE-Hashed-Perceptron-Cache-Replacement-Policy/simulator/traces/ocean_8t/ocean4.champsimtrace")
*** Reached end of trace: (6, "/home/harshraj/COALESCE-Hashed-Perceptron-Cache-Replacement-Policy/simulator/traces/ocean_8t/ocean6.champsimtrace")
*** Reached end of trace: (3, "/home/harshraj/COALESCE-Hashed-Perceptron-Cache-Replacement-Policy/simulator/traces/ocean_8t/ocean3.champsimtrace")
[...]
cpu4->cpu4_ITLB PREFETCH REQUESTED:          0 ISSUED:          0 USEFUL:          0 USELESS:          0
cpu4->cpu4_ITLB AVERAGE MISS LATENCY: 3.86 cycles
cpu4_ITLB COHERENCE INVALIDATIONS:          0
cpu4_ITLB COHERENCE WRITE-HIT OTHER-SHARER EVENTS:          0
cpu4_DTLB COHERENCE INVALIDATIONS:          0
cpu4_DTLB COHERENCE WRITE-HIT OTHER-SHARER EVENTS:          0
cpu3->cpu3_STLB TOTAL        ACCESS:        860 HIT:        860 MISS:          0 MSHR_MERGE:          0
cpu3->cpu3_STLB LOAD         ACCESS:        860 HIT:        860 MISS:          0 MSHR_MERGE:          0
cpu3->cpu3_STLB RFO          ACCESS:          0 HIT:          0 MISS:          0 MSHR_MERGE:          0
cpu3->cpu3_STLB PREFETCH     ACCESS:          0 HIT:          0 MISS:          0 MSHR_MERGE:          0
cpu3->cpu3_STLB WRITE        ACCESS:          0 HIT:          0 MISS:          0 MSHR_MERGE:          0
cpu3->cpu3_STLB TRANSLATION  ACCESS:          0 HIT:          0 MISS:          0 MSHR_MERGE:          0
cpu3->cpu3_STLB PREFETCH REQUESTED:          0 ISSUED:          0 USEFUL:          0 USELESS:          0
cpu3->cpu3_STLB AVERAGE MISS LATENCY: - cycles
cpu3_STLB COHERENCE INVALIDATIONS:          0
cpu3_STLB COHERENCE WRITE-HIT OTHER-SHARER EVENTS:          0
cpu3->cpu3_L2C TOTAL        ACCESS:      83880 HIT:      83880 MISS:          0 MSHR_MERGE:          0
cpu3->cpu3_L2C LOAD         ACCESS:      83880 HIT:      83880 MISS:          0 MSHR_MERGE:          0
cpu3->cpu3_L2C RFO          ACCESS:          0 HIT:          0 MISS:          0 MSHR_MERGE:          0
cpu3->cpu3_L2C PREFETCH     ACCESS:          0 HIT:          0 MISS:          0 MSHR_MERGE:          0
cpu3->cpu3_L2C WRITE        ACCESS:          0 HIT:          0 MISS:          0 MSHR_MERGE:          0
cpu3->cpu3_L2C TRANSLATION  ACCESS:          0 HIT:          0 MISS:          0 MSHR_MERGE:          0
cpu3->cpu3_L2C PREFETCH REQUESTED:          0 ISSUED:          0 USEFUL:          0 USELESS:          0
cpu3->cpu3_L2C AVERAGE MISS LATENCY: - cycles
cpu3_L2C COHERENCE INVALIDATIONS:          0
cpu3_L2C COHERENCE WRITE-HIT OTHER-SHARER EVENTS:          0
cpu3->cpu3_L1I TOTAL        ACCESS:  382545561 HIT:  382419779 MISS:     125782 MSHR_MERGE:      41902
cpu3->cpu3_L1I LOAD         ACCESS:  382545561 HIT:  382419779 MISS:     125782 MSHR_MERGE:      41902
cpu3->cpu3_L1I RFO          ACCESS:          0 HIT:          0 MISS:          0 MSHR_MERGE:          0
cpu3->cpu3_L1I PREFETCH     ACCESS:          0 HIT:          0 MISS:          0 MSHR_MERGE:          0
cpu3->cpu3_L1I WRITE        ACCESS:          0 HIT:          0 MISS:          0 MSHR_MERGE:          0
cpu3->cpu3_L1I TRANSLATION  ACCESS:          0 HIT:          0 MISS:          0 MSHR_MERGE:          0
cpu3->cpu3_L1I PREFETCH REQUESTED:          0 ISSUED:          0 USEFUL:          0 USELESS:          0
cpu3->cpu3_L1I AVERAGE MISS LATENCY: 7 cycles
cpu3_L1I COHERENCE INVALIDATIONS:          0
cpu3_L1I COHERENCE WRITE-HIT OTHER-SHARER EVENTS:          0
cpu3_L1D COHERENCE INVALIDATIONS:          0
cpu3_L1D COHERENCE WRITE-HIT OTHER-SHARER EVENTS:          0
cpu3->cpu3_ITLB TOTAL        ACCESS:  302942216 HIT:  302940605 MISS:       1611 MSHR_MERGE:        751
cpu3->cpu3_ITLB LOAD         ACCESS:  302942216 HIT:  302940605 MISS:       1611 MSHR_MERGE:        751
cpu3->cpu3_ITLB RFO          ACCESS:          0 HIT:          0 MISS:          0 MSHR_MERGE:          0
cpu3->cpu3_ITLB PREFETCH     ACCESS:          0 HIT:          0 MISS:          0 MSHR_MERGE:          0
cpu3->cpu3_ITLB WRITE        ACCESS:          0 HIT:          0 MISS:          0 MSHR_MERGE:          0
cpu3->cpu3_ITLB TRANSLATION  ACCESS:          0 HIT:          0 MISS:          0 MSHR_MERGE:          0
cpu3->cpu3_ITLB PREFETCH REQUESTED:          0 ISSUED:          0 USEFUL:          0 USELESS:          0
cpu3->cpu3_ITLB AVERAGE MISS LATENCY: 4 cycles
cpu3_ITLB COHERENCE INVALIDATIONS:          0
cpu3_ITLB COHERENCE WRITE-HIT OTHER-SHARER EVENTS:          0
cpu3_DTLB COHERENCE INVALIDATIONS:          0
cpu3_DTLB COHERENCE WRITE-HIT OTHER-SHARER EVENTS:          0
cpu2->cpu2_STLB TOTAL        ACCESS:        864 HIT:        864 MISS:          0 MSHR_MERGE:          0
cpu2->cpu2_STLB LOAD         ACCESS:        864 HIT:        864 MISS:          0 MSHR_MERGE:          0
cpu2->cpu2_STLB RFO          ACCESS:          0 HIT:          0 MISS:          0 MSHR_MERGE:          0
cpu2->cpu2_STLB PREFETCH     ACCESS:          0 HIT:          0 MISS:          0 MSHR_MERGE:          0
cpu2->cpu2_STLB WRITE        ACCESS:          0 HIT:          0 MISS:          0 MSHR_MERGE:          0
cpu2->cpu2_STLB TRANSLATION  ACCESS:          0 HIT:          0 MISS:          0 MSHR_MERGE:          0
cpu2->cpu2_STLB PREFETCH REQUESTED:          0 ISSUED:          0 USEFUL:          0 USELESS:          0
cpu2->cpu2_STLB AVERAGE MISS LATENCY: - cycles
cpu2_STLB COHERENCE INVALIDATIONS:          0
cpu2_STLB COHERENCE WRITE-HIT OTHER-SHARER EVENTS:          0
cpu2->cpu2_L2C TOTAL        ACCESS:      89336 HIT:      89336 MISS:          0 MSHR_MERGE:          0
cpu2->cpu2_L2C LOAD         ACCESS:      89336 HIT:      89336 MISS:          0 MSHR_MERGE:          0
cpu2->cpu2_L2C RFO          ACCESS:          0 HIT:          0 MISS:          0 MSHR_MERGE:          0
cpu2->cpu2_L2C PREFETCH     ACCESS:          0 HIT:          0 MISS:          0 MSHR_MERGE:          0
cpu2->cpu2_L2C WRITE        ACCESS:          0 HIT:          0 MISS:          0 MSHR_MERGE:          0
cpu2->cpu2_L2C TRANSLATION  ACCESS:          0 HIT:          0 MISS:          0 MSHR_MERGE:          0
cpu2->cpu2_L2C PREFETCH REQUESTED:          0 ISSUED:          0 USEFUL:          0 USELESS:          0
cpu2->cpu2_L2C AVERAGE MISS LATENCY: - cycles
cpu2_L2C COHERENCE INVALIDATIONS:          0
cpu2_L2C COHERENCE WRITE-HIT OTHER-SHARER EVENTS:          0
cpu2->cpu2_L1I TOTAL        ACCESS:  349470358 HIT:  349342054 MISS:     128304 MSHR_MERGE:      38968
cpu2->cpu2_L1I LOAD         ACCESS:  349470358 HIT:  349342054 MISS:     128304 MSHR_MERGE:      38968
cpu2->cpu2_L1I RFO          ACCESS:          0 HIT:          0 MISS:          0 MSHR_MERGE:          0
cpu2->cpu2_L1I PREFETCH     ACCESS:          0 HIT:          0 MISS:          0 MSHR_MERGE:          0
cpu2->cpu2_L1I WRITE        ACCESS:          0 HIT:          0 MISS:          0 MSHR_MERGE:          0
cpu2->cpu2_L1I TRANSLATION  ACCESS:          0 HIT:          0 MISS:          0 MSHR_MERGE:          0
cpu2->cpu2_L1I PREFETCH REQUESTED:          0 ISSUED:          0 USEFUL:          0 USELESS:          0
cpu2->cpu2_L1I AVERAGE MISS LATENCY: 7 cycles
cpu2_L1I COHERENCE INVALIDATIONS:          0
cpu2_L1I COHERENCE WRITE-HIT OTHER-SHARER EVENTS:          0
cpu2_L1D COHERENCE INVALIDATIONS:          0
cpu2_L1D COHERENCE WRITE-HIT OTHER-SHARER EVENTS:          0
cpu2->cpu2_ITLB TOTAL        ACCESS:  281081324 HIT:  281079866 MISS:       1458 MSHR_MERGE:        594
cpu2->cpu2_ITLB LOAD         ACCESS:  281081324 HIT:  281079866 MISS:       1458 MSHR_MERGE:        594
cpu2->cpu2_ITLB RFO          ACCESS:          0 HIT:          0 MISS:          0 MSHR_MERGE:          0
cpu2->cpu2_ITLB PREFETCH     ACCESS:          0 HIT:          0 MISS:          0 MSHR_MERGE:          0
cpu2->cpu2_ITLB WRITE        ACCESS:          0 HIT:          0 MISS:          0 MSHR_MERGE:          0
cpu2->cpu2_ITLB TRANSLATION  ACCESS:          0 HIT:          0 MISS:          0 MSHR_MERGE:          0
cpu2->cpu2_ITLB PREFETCH REQUESTED:          0 ISSUED:          0 USEFUL:          0 USELESS:          0
cpu2->cpu2_ITLB AVERAGE MISS LATENCY: 4 cycles
cpu2_ITLB COHERENCE INVALIDATIONS:          0
cpu2_ITLB COHERENCE WRITE-HIT OTHER-SHARER EVENTS:          0
cpu2_DTLB COHERENCE INVALIDATIONS:          0
cpu2_DTLB COHERENCE WRITE-HIT OTHER-SHARER EVENTS:          0
cpu1->cpu1_STLB TOTAL        ACCESS:     937184 HIT:     905683 MISS:      31501 MSHR_MERGE:          0
cpu1->cpu1_STLB LOAD         ACCESS:     937184 HIT:     905683 MISS:      31501 MSHR_MERGE:          0
cpu1->cpu1_STLB RFO          ACCESS:          0 HIT:          0 MISS:          0 MSHR_MERGE:          0
cpu1->cpu1_STLB PREFETCH     ACCESS:          0 HIT:          0 MISS:          0 MSHR_MERGE:          0
cpu1->cpu1_STLB WRITE        ACCESS:          0 HIT:          0 MISS:          0 MSHR_MERGE:          0
cpu1->cpu1_STLB TRANSLATION  ACCESS:          0 HIT:          0 MISS:          0 MSHR_MERGE:          0
cpu1->cpu1_STLB PREFETCH REQUESTED:          0 ISSUED:          0 USEFUL:          0 USELESS:          0
cpu1->cpu1_STLB AVERAGE MISS LATENCY: 478 cycles
cpu1_STLB COHERENCE INVALIDATIONS:          0
cpu1_STLB COHERENCE WRITE-HIT OTHER-SHARER EVENTS:          0
cpu1->cpu1_L2C TOTAL        ACCESS:   13323218 HIT:    5443218 MISS:    7880000 MSHR_MERGE:          0
cpu1->cpu1_L2C LOAD         ACCESS:   13274333 HIT:    5443218 MISS:    7831115 MSHR_MERGE:          0
cpu1->cpu1_L2C RFO          ACCESS:          0 HIT:          0 MISS:          0 MSHR_MERGE:          0
cpu1->cpu1_L2C PREFETCH     ACCESS:          0 HIT:          0 MISS:          0 MSHR_MERGE:          0
cpu1->cpu1_L2C WRITE        ACCESS:          0 HIT:          0 MISS:          0 MSHR_MERGE:          0
cpu1->cpu1_L2C TRANSLATION  ACCESS:      48885 HIT:          0 MISS:      48885 MSHR_MERGE:          0
cpu1->cpu1_L2C PREFETCH REQUESTED:          0 ISSUED:          0 USEFUL:          0 USELESS:          0
cpu1->cpu1_L2C AVERAGE MISS LATENCY: 212.6 cycles
cpu1_L2C COHERENCE INVALIDATIONS:          0
cpu1_L2C COHERENCE WRITE-HIT OTHER-SHARER EVENTS:          0
cpu1->cpu1_L1I TOTAL        ACCESS:   49098352 HIT:   34050155 MISS:   15048197 MSHR_MERGE:    1773864
cpu1->cpu1_L1I LOAD         ACCESS:   49098352 HIT:   34050155 MISS:   15048197 MSHR_MERGE:    1773864
cpu1->cpu1_L1I RFO          ACCESS:          0 HIT:          0 MISS:          0 MSHR_MERGE:          0
cpu1->cpu1_L1I PREFETCH     ACCESS:          0 HIT:          0 MISS:          0 MSHR_MERGE:          0
cpu1->cpu1_L1I WRITE        ACCESS:          0 HIT:          0 MISS:          0 MSHR_MERGE:          0
cpu1->cpu1_L1I TRANSLATION  ACCESS:          0 HIT:          0 MISS:          0 MSHR_MERGE:          0
cpu1->cpu1_L1I PREFETCH REQUESTED:          0 ISSUED:          0 USEFUL:          0 USELESS:          0
cpu1->cpu1_L1I AVERAGE MISS LATENCY: 132.8 cycles
cpu1_L1I COHERENCE INVALIDATIONS:          0
cpu1_L1I COHERENCE WRITE-HIT OTHER-SHARER EVENTS:          0
cpu1->cpu1_L1D TOTAL        ACCESS:      63014 HIT:      14129 MISS:      48885 MSHR_MERGE:          0
cpu1->cpu1_L1D LOAD         ACCESS:          0 HIT:          0 MISS:          0 MSHR_MERGE:          0
cpu1->cpu1_L1D RFO          ACCESS:          0 HIT:          0 MISS:          0 MSHR_MERGE:          0
cpu1->cpu1_L1D PREFETCH     ACCESS:          0 HIT:          0 MISS:          0 MSHR_MERGE:          0
cpu1->cpu1_L1D WRITE        ACCESS:          0 HIT:          0 MISS:          0 MSHR_MERGE:          0
cpu1->cpu1_L1D TRANSLATION  ACCESS:      63014 HIT:      14129 MISS:      48885 MSHR_MERGE:          0
cpu1->cpu1_L1D PREFETCH REQUESTED:          0 ISSUED:          0 USEFUL:          0 USELESS:          0
cpu1->cpu1_L1D AVERAGE MISS LATENCY: 300.6 cycles
cpu1_L1D COHERENCE INVALIDATIONS:          0
cpu1_L1D COHERENCE WRITE-HIT OTHER-SHARER EVENTS:          0
cpu1->cpu1_ITLB TOTAL        ACCESS:   48244019 HIT:   47266614 MISS:     977405 MSHR_MERGE:      40221
cpu1->cpu1_ITLB LOAD         ACCESS:   48244019 HIT:   47266614 MISS:     977405 MSHR_MERGE:      40221
cpu1->cpu1_ITLB RFO          ACCESS:          0 HIT:          0 MISS:          0 MSHR_MERGE:          0
cpu1->cpu1_ITLB PREFETCH     ACCESS:          0 HIT:          0 MISS:          0 MSHR_MERGE:          0
cpu1->cpu1_ITLB WRITE        ACCESS:          0 HIT:          0 MISS:          0 MSHR_MERGE:          0
cpu1->cpu1_ITLB TRANSLATION  ACCESS:          0 HIT:          0 MISS:          0 MSHR_MERGE:          0
cpu1->cpu1_ITLB PREFETCH REQUESTED:          0 ISSUED:          0 USEFUL:          0 USELESS:          0
cpu1->cpu1_ITLB AVERAGE MISS LATENCY: 20.1 cycles
cpu1_ITLB COHERENCE INVALIDATIONS:          0
cpu1_ITLB COHERENCE WRITE-HIT OTHER-SHARER EVENTS:          0
cpu1_DTLB COHERENCE INVALIDATIONS:          0
cpu1_DTLB COHERENCE WRITE-HIT OTHER-SHARER EVENTS:          0
cpu0->cpu0_STLB TOTAL        ACCESS:    4694255 HIT:    4546726 MISS:     147529 MSHR_MERGE:          0
cpu0->cpu0_STLB LOAD         ACCESS:    4694255 HIT:    4546726 MISS:     147529 MSHR_MERGE:          0
cpu0->cpu0_STLB RFO          ACCESS:          0 HIT:          0 MISS:          0 MSHR_MERGE:          0
cpu0->cpu0_STLB PREFETCH     ACCESS:          0 HIT:          0 MISS:          0 MSHR_MERGE:          0
cpu0->cpu0_STLB WRITE        ACCESS:          0 HIT:          0 MISS:          0 MSHR_MERGE:          0
cpu0->cpu0_STLB TRANSLATION  ACCESS:          0 HIT:          0 MISS:          0 MSHR_MERGE:          0
cpu0->cpu0_STLB PREFETCH REQUESTED:          0 ISSUED:          0 USEFUL:          0 USELESS:          0
cpu0->cpu0_STLB AVERAGE MISS LATENCY: 613.2 cycles
cpu0_STLB COHERENCE INVALIDATIONS:          0
cpu0_STLB COHERENCE WRITE-HIT OTHER-SHARER EVENTS:          0
cpu0->cpu0_L2C TOTAL        ACCESS:   32532379 HIT:   14805446 MISS:   17726933 MSHR_MERGE:          0
cpu0->cpu0_L2C LOAD         ACCESS:   21245533 HIT:    6696343 MISS:   14549190 MSHR_MERGE:          0
cpu0->cpu0_L2C RFO          ACCESS:    3436728 HIT:     492278 MISS:    2944450 MSHR_MERGE:          0
cpu0->cpu0_L2C PREFETCH     ACCESS:          0 HIT:          0 MISS:          0 MSHR_MERGE:          0
cpu0->cpu0_L2C WRITE        ACCESS:    7578005 HIT:    7577188 MISS:        817 MSHR_MERGE:          0
cpu0->cpu0_L2C TRANSLATION  ACCESS:     272113 HIT:      39637 MISS:     232476 MSHR_MERGE:          0
cpu0->cpu0_L2C PREFETCH REQUESTED:          0 ISSUED:          0 USEFUL:          0 USELESS:          0
cpu0->cpu0_L2C AVERAGE MISS LATENCY: 200.9 cycles
cpu0_L2C COHERENCE INVALIDATIONS:          0
cpu0_L2C COHERENCE WRITE-HIT OTHER-SHARER EVENTS:          0
cpu0->cpu0_L1I TOTAL        ACCESS:   31198780 HIT:   31187080 MISS:      11700 MSHR_MERGE:       5472
cpu0->cpu0_L1I LOAD         ACCESS:   31198780 HIT:   31187080 MISS:      11700 MSHR_MERGE:       5472
cpu0->cpu0_L1I RFO          ACCESS:          0 HIT:          0 MISS:          0 MSHR_MERGE:          0
cpu0->cpu0_L1I PREFETCH     ACCESS:          0 HIT:          0 MISS:          0 MSHR_MERGE:          0
cpu0->cpu0_L1I WRITE        ACCESS:          0 HIT:          0 MISS:          0 MSHR_MERGE:          0
cpu0->cpu0_L1I TRANSLATION  ACCESS:          0 HIT:          0 MISS:          0 MSHR_MERGE:          0
cpu0->cpu0_L1I PREFETCH REQUESTED:          0 ISSUED:          0 USEFUL:          0 USELESS:          0
cpu0->cpu0_L1I AVERAGE MISS LATENCY: 252.4 cycles
cpu0_L1I COHERENCE INVALIDATIONS:          0
cpu0_L1I COHERENCE WRITE-HIT OTHER-SHARER EVENTS:          0
cpu0->cpu0_L1D TOTAL        ACCESS:  103616175 HIT:   74913413 MISS:   28702762 MSHR_MERGE:    3753058
cpu0->cpu0_L1D LOAD         ACCESS:   45006304 HIT:   22691670 MISS:   22314634 MSHR_MERGE:    1075055
cpu0->cpu0_L1D RFO          ACCESS:          0 HIT:          0 MISS:          0 MSHR_MERGE:          0
cpu0->cpu0_L1D PREFETCH     ACCESS:          0 HIT:          0 MISS:          0 MSHR_MERGE:          0
cpu0->cpu0_L1D WRITE        ACCESS:   58309653 HIT:   52199163 MISS:    6110490 MSHR_MERGE:    2672478
cpu0->cpu0_L1D TRANSLATION  ACCESS:     300218 HIT:      22580 MISS:     277638 MSHR_MERGE:       5525
cpu0->cpu0_L1D PREFETCH REQUESTED:          0 ISSUED:          0 USEFUL:          0 USELESS:          0
cpu0->cpu0_L1D AVERAGE MISS LATENCY: 150.4 cycles
cpu0_L1D COHERENCE INVALIDATIONS:          0
cpu0_L1D COHERENCE WRITE-HIT OTHER-SHARER EVENTS:          0
cpu0->cpu0_ITLB TOTAL        ACCESS:   30015106 HIT:   30014054 MISS:       1052 MSHR_MERGE:        703
cpu0->cpu0_ITLB LOAD         ACCESS:   30015106 HIT:   30014054 MISS:       1052 MSHR_MERGE:        703
cpu0->cpu0_ITLB RFO          ACCESS:          0 HIT:          0 MISS:          0 MSHR_MERGE:          0
cpu0->cpu0_ITLB PREFETCH     ACCESS:          0 HIT:          0 MISS:          0 MSHR_MERGE:          0
cpu0->cpu0_ITLB WRITE        ACCESS:          0 HIT:          0 MISS:          0 MSHR_MERGE:          0
cpu0->cpu0_ITLB TRANSLATION  ACCESS:          0 HIT:          0 MISS:          0 MSHR_MERGE:          0
cpu0->cpu0_ITLB PREFETCH REQUESTED:          0 ISSUED:          0 USEFUL:          0 USELESS:          0
cpu0->cpu0_ITLB AVERAGE MISS LATENCY: 481.2 cycles
cpu0_ITLB COHERENCE INVALIDATIONS:          0
cpu0_ITLB COHERENCE WRITE-HIT OTHER-SHARER EVENTS:          0
cpu0->cpu0_DTLB TOTAL        ACCESS:  100025828 HIT:   95129616 MISS:    4896212 MSHR_MERGE:     202306
cpu0->cpu0_DTLB LOAD         ACCESS:  100025828 HIT:   95129616 MISS:    4896212 MSHR_MERGE:     202306
cpu0->cpu0_DTLB RFO          ACCESS:          0 HIT:          0 MISS:          0 MSHR_MERGE:          0
cpu0->cpu0_DTLB PREFETCH     ACCESS:          0 HIT:          0 MISS:          0 MSHR_MERGE:          0
cpu0->cpu0_DTLB WRITE        ACCESS:          0 HIT:          0 MISS:          0 MSHR_MERGE:          0
cpu0->cpu0_DTLB TRANSLATION  ACCESS:          0 HIT:          0 MISS:          0 MSHR_MERGE:          0
cpu0->cpu0_DTLB PREFETCH REQUESTED:          0 ISSUED:          0 USEFUL:          0 USELESS:          0
cpu0->cpu0_DTLB AVERAGE MISS LATENCY: 23.27 cycles
cpu0_DTLB COHERENCE INVALIDATIONS:          0
cpu0_DTLB COHERENCE WRITE-HIT OTHER-SHARER EVENTS:          0
cpu0->LLC TOTAL        ACCESS:   24169447 HIT:    9393729 MISS:   14775718 MSHR_MERGE:        218
cpu0->LLC LOAD         ACCESS:   14549174 HIT:    6007199 MISS:    8541975 MSHR_MERGE:        190
cpu0->LLC RFO          ACCESS:    2944447 HIT:     702896 MISS:    2241551 MSHR_MERGE:         28
cpu0->LLC PREFETCH     ACCESS:          0 HIT:          0 MISS:          0 MSHR_MERGE:          0
cpu0->LLC WRITE        ACCESS:    6443350 HIT:    2674870 MISS:    3768480 MSHR_MERGE:          0
cpu0->LLC TRANSLATION  ACCESS:     232476 HIT:       8764 MISS:     223712 MSHR_MERGE:          0
cpu0->LLC PREFETCH REQUESTED:          0 ISSUED:          0 USEFUL:          0 USELESS:          0
cpu0->LLC AVERAGE MISS LATENCY: 329.7 cycles
cpu1->LLC TOTAL        ACCESS:    7880000 HIT:    2701316 MISS:    5178684 MSHR_MERGE:        219
cpu1->LLC LOAD         ACCESS:    7831115 HIT:    2698375 MISS:    5132740 MSHR_MERGE:        219
cpu1->LLC RFO          ACCESS:          0 HIT:          0 MISS:          0 MSHR_MERGE:          0
cpu1->LLC PREFETCH     ACCESS:          0 HIT:          0 MISS:          0 MSHR_MERGE:          0
cpu1->LLC WRITE        ACCESS:          0 HIT:          0 MISS:          0 MSHR_MERGE:          0
cpu1->LLC TRANSLATION  ACCESS:      48885 HIT:       2941 MISS:      45944 MSHR_MERGE:          0
cpu1->LLC PREFETCH REQUESTED:          0 ISSUED:          0 USEFUL:          0 USELESS:          0
cpu1->LLC AVERAGE MISS LATENCY: 940.6 cycles
LLC COHERENCE INVALIDATIONS:     817100
LLC COHERENCE WRITE-HIT OTHER-SHARER EVENTS:     817100
LLC SHARER HIST TOTAL:      319263424
LLC SHARER HIST[ 1]:      159616376  (49.995%)
LLC SHARER HIST[ 2]:      156987061  (49.172%)
LLC SHARER HIST[ 3]:          48881  ( 0.015%)
LLC SHARER HIST[ 4]:         238008  ( 0.075%)
LLC SHARER HIST[ 5]:         180424  ( 0.057%)
LLC SHARER HIST[ 6]:         163314  ( 0.051%)
LLC SHARER HIST[ 7]:         394503  ( 0.124%)
LLC SHARER HIST[ 8]:        1634857  ( 0.512%)

DRAM Statistics

Channel 0 RQ ROW_BUFFER_HIT:     318511
  ROW_BUFFER_MISS:   15825998
  AVG DBUS CONGESTED CYCLE: 6.425
Channel 0 WQ ROW_BUFFER_HIT:     362903
  ROW_BUFFER_MISS:    3559475
  FULL:          0
Channel 0 REFRESHES ISSUED:      50814

VMEM ALIASED FILLS (cross-CPU shared-page hits): 91172
