[VMEM] WARNING: physical memory size is smaller than virtual memory size.

*** ChampSim Multicore Out-of-Order Simulator ***
Warmup Instructions: 50000000
Simulation Instructions: 100000000
Number of CPUs: 8
Page size: 4096

Off-chip DRAM Size: 16 GiB Channels: 1 Width: 64-bit Data Rate: 3205 MT/s
Heartbeat CPU 4 instructions: 10000001 cycles: 2509180 heartbeat IPC: 3.985 cumulative IPC: 3.985 (Simulation time: 00 hr 10 min 47 sec)
Heartbeat CPU 5 instructions: 10000003 cycles: 2509276 heartbeat IPC: 3.985 cumulative IPC: 3.985 (Simulation time: 00 hr 10 min 47 sec)
Heartbeat CPU 3 instructions: 10000003 cycles: 2509387 heartbeat IPC: 3.985 cumulative IPC: 3.985 (Simulation time: 00 hr 10 min 47 sec)
Heartbeat CPU 6 instructions: 10000000 cycles: 2509596 heartbeat IPC: 3.985 cumulative IPC: 3.985 (Simulation time: 00 hr 10 min 47 sec)
Heartbeat CPU 7 instructions: 10000002 cycles: 2509727 heartbeat IPC: 3.984 cumulative IPC: 3.984 (Simulation time: 00 hr 10 min 47 sec)
Heartbeat CPU 2 instructions: 10000001 cycles: 2510814 heartbeat IPC: 3.983 cumulative IPC: 3.983 (Simulation time: 00 hr 10 min 47 sec)
Heartbeat CPU 1 instructions: 10000001 cycles: 4699283 heartbeat IPC: 2.128 cumulative IPC: 2.128 (Simulation time: 00 hr 19 min 58 sec)
Heartbeat CPU 4 instructions: 20000001 cycles: 5009529 heartbeat IPC: 3.999 cumulative IPC: 3.992 (Simulation time: 00 hr 21 min 17 sec)
Heartbeat CPU 3 instructions: 20000006 cycles: 5009607 heartbeat IPC: 4 cumulative IPC: 3.992 (Simulation time: 00 hr 21 min 17 sec)
Heartbeat CPU 5 instructions: 20000006 cycles: 5009614 heartbeat IPC: 3.999 cumulative IPC: 3.992 (Simulation time: 00 hr 21 min 17 sec)
Heartbeat CPU 6 instructions: 20000001 cycles: 5009817 heartbeat IPC: 4 cumulative IPC: 3.992 (Simulation time: 00 hr 21 min 17 sec)
Heartbeat CPU 7 instructions: 20000004 cycles: 5009950 heartbeat IPC: 4 cumulative IPC: 3.992 (Simulation time: 00 hr 21 min 17 sec)
Heartbeat CPU 2 instructions: 20000003 cycles: 5011656 heartbeat IPC: 3.999 cumulative IPC: 3.991 (Simulation time: 00 hr 21 min 18 sec)
Heartbeat CPU 4 instructions: 30000001 cycles: 7509529 heartbeat IPC: 4 cumulative IPC: 3.995 (Simulation time: 00 hr 31 min 58 sec)
Heartbeat CPU 3 instructions: 30000006 cycles: 7509607 heartbeat IPC: 4 cumulative IPC: 3.995 (Simulation time: 00 hr 31 min 58 sec)
Heartbeat CPU 5 instructions: 30000006 cycles: 7509614 heartbeat IPC: 4 cumulative IPC: 3.995 (Simulation time: 00 hr 31 min 58 sec)
Heartbeat CPU 6 instructions: 30000001 cycles: 7509817 heartbeat IPC: 4 cumulative IPC: 3.995 (Simulation time: 00 hr 31 min 58 sec)
Heartbeat CPU 7 instructions: 30000004 cycles: 7509950 heartbeat IPC: 4 cumulative IPC: 3.995 (Simulation time: 00 hr 31 min 58 sec)
Heartbeat CPU 2 instructions: 30000003 cycles: 7511656 heartbeat IPC: 4 cumulative IPC: 3.994 (Simulation time: 00 hr 31 min 59 sec)
Heartbeat CPU 1 instructions: 20000001 cycles: 9277740 heartbeat IPC: 2.184 cumulative IPC: 2.156 (Simulation time: 00 hr 39 min 37 sec)
Heartbeat CPU 4 instructions: 40000001 cycles: 10009529 heartbeat IPC: 4 cumulative IPC: 3.996 (Simulation time: 00 hr 42 min 47 sec)
Heartbeat CPU 3 instructions: 40000006 cycles: 10009607 heartbeat IPC: 4 cumulative IPC: 3.996 (Simulation time: 00 hr 42 min 47 sec)
Heartbeat CPU 5 instructions: 40000006 cycles: 10009614 heartbeat IPC: 4 cumulative IPC: 3.996 (Simulation time: 00 hr 42 min 47 sec)
Heartbeat CPU 6 instructions: 40000001 cycles: 10009817 heartbeat IPC: 4 cumulative IPC: 3.996 (Simulation time: 00 hr 42 min 47 sec)
Heartbeat CPU 7 instructions: 40000004 cycles: 10009950 heartbeat IPC: 4 cumulative IPC: 3.996 (Simulation time: 00 hr 42 min 47 sec)
Heartbeat CPU 2 instructions: 40000003 cycles: 10011656 heartbeat IPC: 4 cumulative IPC: 3.995 (Simulation time: 00 hr 42 min 47 sec)
*** Reached end of trace: (2, "traces/ocean_8t/ocean2.champsimtrace")
*** Reached end of trace: (5, "traces/ocean_8t/ocean5.champsimtrace")
*** Reached end of trace: (4, "traces/ocean_8t/ocean4.champsimtrace")
*** Reached end of trace: (6, "traces/ocean_8t/ocean6.champsimtrace")
*** Reached end of trace: (3, "traces/ocean_8t/ocean3.champsimtrace")
*** Reached end of trace: (7, "traces/ocean_8t/ocean7.champsimtrace")
Heartbeat CPU 4 instructions: 50000002 cycles: 12511537 heartbeat IPC: 3.997 cumulative IPC: 3.996 (Simulation time: 00 hr 53 min 26 sec)
Warmup finished CPU 4 instructions: 50000002 cycles: 12511537 cumulative IPC: 3.996 (Simulation time: 00 hr 53 min 26 sec)
Warmup finished CPU 3 instructions: 50000000 cycles: 12511608 cumulative IPC: 3.996 (Simulation time: 00 hr 53 min 26 sec)
Heartbeat CPU 3 instructions: 50000008 cycles: 12511610 heartbeat IPC: 3.997 cumulative IPC: 3.996 (Simulation time: 00 hr 53 min 26 sec)
Warmup finished CPU 5 instructions: 50000001 cycles: 12511617 cumulative IPC: 3.996 (Simulation time: 00 hr 53 min 26 sec)
Heartbeat CPU 5 instructions: 50000009 cycles: 12511619 heartbeat IPC: 3.997 cumulative IPC: 3.996 (Simulation time: 00 hr 53 min 26 sec)
Heartbeat CPU 6 instructions: 50000003 cycles: 12511821 heartbeat IPC: 3.997 cumulative IPC: 3.996 (Simulation time: 00 hr 53 min 26 sec)
Warmup finished CPU 6 instructions: 50000003 cycles: 12511821 cumulative IPC: 3.996 (Simulation time: 00 hr 53 min 26 sec)
Warmup finished CPU 7 instructions: 50000003 cycles: 12511959 cumulative IPC: 3.996 (Simulation time: 00 hr 53 min 26 sec)
Heartbeat CPU 7 instructions: 50000007 cycles: 12511960 heartbeat IPC: 3.997 cumulative IPC: 3.996 (Simulation time: 00 hr 53 min 26 sec)
Warmup finished CPU 2 instructions: 50000002 cycles: 12514464 cumulative IPC: 3.995 (Simulation time: 00 hr 53 min 27 sec)
Heartbeat CPU 2 instructions: 50000006 cycles: 12514465 heartbeat IPC: 3.996 cumulative IPC: 3.995 (Simulation time: 00 hr 53 min 27 sec)
Heartbeat CPU 1 instructions: 30000002 cycles: 14634282 heartbeat IPC: 1.867 cumulative IPC: 2.05 (Simulation time: 01 hr 02 min 23 sec)
Heartbeat CPU 4 instructions: 60000002 cycles: 15011537 heartbeat IPC: 4 cumulative IPC: 3.997 (Simulation time: 01 hr 03 min 58 sec)
Heartbeat CPU 3 instructions: 60000008 cycles: 15011610 heartbeat IPC: 4 cumulative IPC: 3.997 (Simulation time: 01 hr 03 min 58 sec)
Heartbeat CPU 5 instructions: 60000009 cycles: 15011619 heartbeat IPC: 4 cumulative IPC: 3.997 (Simulation time: 01 hr 03 min 58 sec)
Heartbeat CPU 6 instructions: 60000003 cycles: 15011821 heartbeat IPC: 4 cumulative IPC: 3.997 (Simulation time: 01 hr 03 min 58 sec)
Heartbeat CPU 7 instructions: 60000007 cycles: 15011960 heartbeat IPC: 4 cumulative IPC: 3.997 (Simulation time: 01 hr 03 min 58 sec)
Heartbeat CPU 2 instructions: 60000006 cycles: 15014465 heartbeat IPC: 4 cumulative IPC: 3.996 (Simulation time: 01 hr 03 min 59 sec)
Heartbeat CPU 4 instructions: 70000002 cycles: 17511537 heartbeat IPC: 4 cumulative IPC: 3.997 (Simulation time: 01 hr 14 min 33 sec)
Heartbeat CPU 3 instructions: 70000008 cycles: 17511610 heartbeat IPC: 4 cumulative IPC: 3.997 (Simulation time: 01 hr 14 min 33 sec)
Heartbeat CPU 5 instructions: 70000009 cycles: 17511619 heartbeat IPC: 4 cumulative IPC: 3.997 (Simulation time: 01 hr 14 min 33 sec)
Heartbeat CPU 6 instructions: 70000003 cycles: 17511821 heartbeat IPC: 4 cumulative IPC: 3.997 (Simulation time: 01 hr 14 min 33 sec)
Heartbeat CPU 7 instructions: 70000007 cycles: 17511960 heartbeat IPC: 4 cumulative IPC: 3.997 (Simulation time: 01 hr 14 min 33 sec)
Heartbeat CPU 2 instructions: 70000006 cycles: 17514465 heartbeat IPC: 4 cumulative IPC: 3.997 (Simulation time: 01 hr 14 min 34 sec)
Heartbeat CPU 1 instructions: 40000004 cycles: 18886740 heartbeat IPC: 2.352 cumulative IPC: 2.118 (Simulation time: 01 hr 20 min 19 sec)
Heartbeat CPU 4 instructions: 80000002 cycles: 20011537 heartbeat IPC: 4 cumulative IPC: 3.998 (Simulation time: 01 hr 25 min 18 sec)
Heartbeat CPU 3 instructions: 80000008 cycles: 20011610 heartbeat IPC: 4 cumulative IPC: 3.998 (Simulation time: 01 hr 25 min 18 sec)
Heartbeat CPU 5 instructions: 80000009 cycles: 20011619 heartbeat IPC: 4 cumulative IPC: 3.998 (Simulation time: 01 hr 25 min 18 sec)
Heartbeat CPU 6 instructions: 80000003 cycles: 20011821 heartbeat IPC: 4 cumulative IPC: 3.998 (Simulation time: 01 hr 25 min 18 sec)
Heartbeat CPU 7 instructions: 80000007 cycles: 20011960 heartbeat IPC: 4 cumulative IPC: 3.998 (Simulation time: 01 hr 25 min 18 sec)
Heartbeat CPU 2 instructions: 80000006 cycles: 20014465 heartbeat IPC: 4 cumulative IPC: 3.997 (Simulation time: 01 hr 25 min 19 sec)
*** Reached end of trace: (1, "traces/ocean_8t/ocean1.champsimtrace")
Heartbeat CPU 0 instructions: 10000000 cycles: 20902416 heartbeat IPC: 0.4784 cumulative IPC: 0.4784 (Simulation time: 01 hr 29 min 10 sec)
Heartbeat CPU 4 instructions: 90000002 cycles: 22511537 heartbeat IPC: 4 cumulative IPC: 3.998 (Simulation time: 01 hr 35 min 52 sec)
Heartbeat CPU 3 instructions: 90000008 cycles: 22511610 heartbeat IPC: 4 cumulative IPC: 3.998 (Simulation time: 01 hr 35 min 52 sec)
Heartbeat CPU 5 instructions: 90000009 cycles: 22511619 heartbeat IPC: 4 cumulative IPC: 3.998 (Simulation time: 01 hr 35 min 52 sec)
Heartbeat CPU 6 instructions: 90000003 cycles: 22511821 heartbeat IPC: 4 cumulative IPC: 3.998 (Simulation time: 01 hr 35 min 53 sec)
Heartbeat CPU 7 instructions: 90000007 cycles: 22511960 heartbeat IPC: 4 cumulative IPC: 3.998 (Simulation time: 01 hr 35 min 53 sec)
Heartbeat CPU 2 instructions: 90000006 cycles: 22514465 heartbeat IPC: 4 cumulative IPC: 3.997 (Simulation time: 01 hr 35 min 53 sec)
*** Reached end of trace: (2, "traces/ocean_8t/ocean2.champsimtrace")
*** Reached end of trace: (5, "traces/ocean_8t/ocean5.champsimtrace")
*** Reached end of trace: (4, "traces/ocean_8t/ocean4.champsimtrace")
*** Reached end of trace: (6, "traces/ocean_8t/ocean6.champsimtrace")
*** Reached end of trace: (3, "traces/ocean_8t/ocean3.champsimtrace")
*** Reached end of trace: (7, "traces/ocean_8t/ocean7.champsimtrace")
Warmup finished CPU 1 instructions: 50000002 cycles: 22770859 cumulative IPC: 2.196 (Simulation time: 01 hr 36 min 56 sec)
Heartbeat CPU 1 instructions: 50000006 cycles: 22770860 heartbeat IPC: 2.575 cumulative IPC: 2.196 (Simulation time: 01 hr 36 min 56 sec)
Heartbeat CPU 4 instructions: 100000002 cycles: 25011537 heartbeat IPC: 4 cumulative IPC: 3.998 (Simulation time: 01 hr 46 min 41 sec)
Heartbeat CPU 3 instructions: 100000008 cycles: 25011610 heartbeat IPC: 4 cumulative IPC: 3.998 (Simulation time: 01 hr 46 min 41 sec)
Heartbeat CPU 5 instructions: 100000009 cycles: 25011619 heartbeat IPC: 4 cumulative IPC: 3.998 (Simulation time: 01 hr 46 min 41 sec)
Heartbeat CPU 6 instructions: 100000003 cycles: 25011821 heartbeat IPC: 4 cumulative IPC: 3.998 (Simulation time: 01 hr 46 min 41 sec)
Heartbeat CPU 7 instructions: 100000007 cycles: 25011960 heartbeat IPC: 4 cumulative IPC: 3.998 (Simulation time: 01 hr 46 min 41 sec)
Heartbeat CPU 2 instructions: 100000006 cycles: 25014465 heartbeat IPC: 4 cumulative IPC: 3.998 (Simulation time: 01 hr 46 min 42 sec)
Heartbeat CPU 1 instructions: 60000009 cycles: 26878508 heartbeat IPC: 2.434 cumulative IPC: 2.232 (Simulation time: 01 hr 54 min 23 sec)
Heartbeat CPU 4 instructions: 110000002 cycles: 27511537 heartbeat IPC: 4 cumulative IPC: 3.998 (Simulation time: 01 hr 56 min 52 sec)
Heartbeat CPU 3 instructions: 110000008 cycles: 27511610 heartbeat IPC: 4 cumulative IPC: 3.998 (Simulation time: 01 hr 56 min 52 sec)
Heartbeat CPU 5 instructions: 110000009 cycles: 27511619 heartbeat IPC: 4 cumulative IPC: 3.998 (Simulation time: 01 hr 56 min 52 sec)
Heartbeat CPU 6 instructions: 110000003 cycles: 27511821 heartbeat IPC: 4 cumulative IPC: 3.998 (Simulation time: 01 hr 56 min 52 sec)
Heartbeat CPU 7 instructions: 110000007 cycles: 27511960 heartbeat IPC: 4 cumulative IPC: 3.998 (Simulation time: 01 hr 56 min 52 sec)
Heartbeat CPU 2 instructions: 110000006 cycles: 27514465 heartbeat IPC: 4 cumulative IPC: 3.998 (Simulation time: 01 hr 56 min 53 sec)
Heartbeat CPU 4 instructions: 120000002 cycles: 30011537 heartbeat IPC: 4 cumulative IPC: 3.998 (Simulation time: 02 hr 06 min 48 sec)
Heartbeat CPU 3 instructions: 120000008 cycles: 30011610 heartbeat IPC: 4 cumulative IPC: 3.998 (Simulation time: 02 hr 06 min 48 sec)
Heartbeat CPU 5 instructions: 120000009 cycles: 30011619 heartbeat IPC: 4 cumulative IPC: 3.998 (Simulation time: 02 hr 06 min 48 sec)
Heartbeat CPU 6 instructions: 120000003 cycles: 30011821 heartbeat IPC: 4 cumulative IPC: 3.998 (Simulation time: 02 hr 06 min 48 sec)
Heartbeat CPU 7 instructions: 120000007 cycles: 30011960 heartbeat IPC: 4 cumulative IPC: 3.998 (Simulation time: 02 hr 06 min 48 sec)
Heartbeat CPU 2 instructions: 120000006 cycles: 30014465 heartbeat IPC: 4 cumulative IPC: 3.998 (Simulation time: 02 hr 06 min 49 sec)
Heartbeat CPU 1 instructions: 70000009 cycles: 31063307 heartbeat IPC: 2.39 cumulative IPC: 2.253 (Simulation time: 02 hr 10 min 58 sec)
Heartbeat CPU 4 instructions: 130000002 cycles: 32511537 heartbeat IPC: 4 cumulative IPC: 3.999 (Simulation time: 02 hr 16 min 23 sec)
Heartbeat CPU 3 instructions: 130000008 cycles: 32511610 heartbeat IPC: 4 cumulative IPC: 3.999 (Simulation time: 02 hr 16 min 23 sec)
Heartbeat CPU 5 instructions: 130000009 cycles: 32511619 heartbeat IPC: 4 cumulative IPC: 3.999 (Simulation time: 02 hr 16 min 23 sec)
Heartbeat CPU 6 instructions: 130000003 cycles: 32511821 heartbeat IPC: 4 cumulative IPC: 3.999 (Simulation time: 02 hr 16 min 23 sec)
Heartbeat CPU 7 instructions: 130000007 cycles: 32511960 heartbeat IPC: 4 cumulative IPC: 3.999 (Simulation time: 02 hr 16 min 23 sec)
Heartbeat CPU 2 instructions: 130000006 cycles: 32514465 heartbeat IPC: 4 cumulative IPC: 3.998 (Simulation time: 02 hr 16 min 23 sec)
*** Reached end of trace: (2, "traces/ocean_8t/ocean2.champsimtrace")
*** Reached end of trace: (5, "traces/ocean_8t/ocean5.champsimtrace")
*** Reached end of trace: (4, "traces/ocean_8t/ocean4.champsimtrace")
*** Reached end of trace: (6, "traces/ocean_8t/ocean6.champsimtrace")
*** Reached end of trace: (3, "traces/ocean_8t/ocean3.champsimtrace")
*** Reached end of trace: (7, "traces/ocean_8t/ocean7.champsimtrace")
Heartbeat CPU 4 instructions: 140000002 cycles: 35011537 heartbeat IPC: 4 cumulative IPC: 3.999 (Simulation time: 02 hr 25 min 17 sec)
Heartbeat CPU 3 instructions: 140000008 cycles: 35011610 heartbeat IPC: 4 cumulative IPC: 3.999 (Simulation time: 02 hr 25 min 17 sec)
Heartbeat CPU 5 instructions: 140000009 cycles: 35011619 heartbeat IPC: 4 cumulative IPC: 3.999 (Simulation time: 02 hr 25 min 17 sec)
Heartbeat CPU 6 instructions: 140000003 cycles: 35011821 heartbeat IPC: 4 cumulative IPC: 3.999 (Simulation time: 02 hr 25 min 17 sec)
Heartbeat CPU 7 instructions: 140000007 cycles: 35011960 heartbeat IPC: 4 cumulative IPC: 3.999 (Simulation time: 02 hr 25 min 17 sec)
Heartbeat CPU 2 instructions: 140000006 cycles: 35014465 heartbeat IPC: 4 cumulative IPC: 3.998 (Simulation time: 02 hr 25 min 18 sec)
Heartbeat CPU 1 instructions: 80000009 cycles: 36632604 heartbeat IPC: 1.796 cumulative IPC: 2.184 (Simulation time: 02 hr 31 min 03 sec)
Heartbeat CPU 4 instructions: 150000002 cycles: 37511537 heartbeat IPC: 4 cumulative IPC: 3.999 (Simulation time: 02 hr 34 min 11 sec)
Heartbeat CPU 3 instructions: 150000008 cycles: 37511610 heartbeat IPC: 4 cumulative IPC: 3.999 (Simulation time: 02 hr 34 min 11 sec)
Heartbeat CPU 5 instructions: 150000009 cycles: 37511619 heartbeat IPC: 4 cumulative IPC: 3.999 (Simulation time: 02 hr 34 min 11 sec)
Heartbeat CPU 6 instructions: 150000003 cycles: 37511821 heartbeat IPC: 4 cumulative IPC: 3.999 (Simulation time: 02 hr 34 min 11 sec)
Heartbeat CPU 7 instructions: 150000007 cycles: 37511960 heartbeat IPC: 4 cumulative IPC: 3.999 (Simulation time: 02 hr 34 min 11 sec)
Heartbeat CPU 2 instructions: 150000006 cycles: 37514465 heartbeat IPC: 4 cumulative IPC: 3.998 (Simulation time: 02 hr 34 min 11 sec)
Heartbeat CPU 4 instructions: 160000002 cycles: 40011537 heartbeat IPC: 4 cumulative IPC: 3.999 (Simulation time: 02 hr 43 min 06 sec)
Heartbeat CPU 3 instructions: 160000008 cycles: 40011610 heartbeat IPC: 4 cumulative IPC: 3.999 (Simulation time: 02 hr 43 min 06 sec)
Heartbeat CPU 5 instructions: 160000009 cycles: 40011619 heartbeat IPC: 4 cumulative IPC: 3.999 (Simulation time: 02 hr 43 min 06 sec)
Heartbeat CPU 6 instructions: 160000003 cycles: 40011821 heartbeat IPC: 4 cumulative IPC: 3.999 (Simulation time: 02 hr 43 min 06 sec)
Heartbeat CPU 7 instructions: 160000007 cycles: 40011960 heartbeat IPC: 4 cumulative IPC: 3.999 (Simulation time: 02 hr 43 min 06 sec)
Heartbeat CPU 2 instructions: 160000006 cycles: 40014465 heartbeat IPC: 4 cumulative IPC: 3.999 (Simulation time: 02 hr 43 min 06 sec)
Heartbeat CPU 1 instructions: 90000010 cycles: 40074982 heartbeat IPC: 2.905 cumulative IPC: 2.246 (Simulation time: 02 hr 43 min 19 sec)
*** Reached end of trace: (1, "traces/ocean_8t/ocean1.champsimtrace")
Heartbeat CPU 0 instructions: 20000001 cycles: 42231434 heartbeat IPC: 0.4688 cumulative IPC: 0.4736 (Simulation time: 02 hr 51 min 11 sec)
Heartbeat CPU 4 instructions: 170000002 cycles: 42511537 heartbeat IPC: 4 cumulative IPC: 3.999 (Simulation time: 02 hr 52 min 22 sec)
Heartbeat CPU 3 instructions: 170000008 cycles: 42511610 heartbeat IPC: 4 cumulative IPC: 3.999 (Simulation time: 02 hr 52 min 22 sec)
Heartbeat CPU 5 instructions: 170000009 cycles: 42511619 heartbeat IPC: 4 cumulative IPC: 3.999 (Simulation time: 02 hr 52 min 22 sec)
Heartbeat CPU 6 instructions: 170000003 cycles: 42511821 heartbeat IPC: 4 cumulative IPC: 3.999 (Simulation time: 02 hr 52 min 22 sec)
Heartbeat CPU 7 instructions: 170000007 cycles: 42511960 heartbeat IPC: 4 cumulative IPC: 3.999 (Simulation time: 02 hr 52 min 22 sec)
Heartbeat CPU 2 instructions: 170000006 cycles: 42514465 heartbeat IPC: 4 cumulative IPC: 3.999 (Simulation time: 02 hr 52 min 22 sec)
Heartbeat CPU 1 instructions: 100000013 cycles: 44171060 heartbeat IPC: 2.441 cumulative IPC: 2.264 (Simulation time: 02 hr 59 min 09 sec)
Heartbeat CPU 4 instructions: 180000002 cycles: 45011537 heartbeat IPC: 4 cumulative IPC: 3.999 (Simulation time: 03 hr 02 min 36 sec)
Heartbeat CPU 3 instructions: 180000008 cycles: 45011610 heartbeat IPC: 4 cumulative IPC: 3.999 (Simulation time: 03 hr 02 min 36 sec)
Heartbeat CPU 5 instructions: 180000009 cycles: 45011619 heartbeat IPC: 4 cumulative IPC: 3.999 (Simulation time: 03 hr 02 min 36 sec)
Heartbeat CPU 6 instructions: 180000003 cycles: 45011821 heartbeat IPC: 4 cumulative IPC: 3.999 (Simulation time: 03 hr 02 min 36 sec)
Heartbeat CPU 7 instructions: 180000007 cycles: 45011960 heartbeat IPC: 4 cumulative IPC: 3.999 (Simulation time: 03 hr 02 min 36 sec)
Heartbeat CPU 2 instructions: 180000006 cycles: 45014465 heartbeat IPC: 4 cumulative IPC: 3.999 (Simulation time: 03 hr 02 min 37 sec)
*** Reached end of trace: (2, "traces/ocean_8t/ocean2.champsimtrace")
*** Reached end of trace: (5, "traces/ocean_8t/ocean5.champsimtrace")
*** Reached end of trace: (4, "traces/ocean_8t/ocean4.champsimtrace")
*** Reached end of trace: (6, "traces/ocean_8t/ocean6.champsimtrace")
*** Reached end of trace: (3, "traces/ocean_8t/ocean3.champsimtrace")
*** Reached end of trace: (7, "traces/ocean_8t/ocean7.champsimtrace")
Heartbeat CPU 4 instructions: 190000002 cycles: 47511537 heartbeat IPC: 4 cumulative IPC: 3.999 (Simulation time: 03 hr 12 min 51 sec)
Heartbeat CPU 3 instructions: 190000008 cycles: 47511610 heartbeat IPC: 4 cumulative IPC: 3.999 (Simulation time: 03 hr 12 min 51 sec)
Heartbeat CPU 5 instructions: 190000009 cycles: 47511619 heartbeat IPC: 4 cumulative IPC: 3.999 (Simulation time: 03 hr 12 min 51 sec)
Heartbeat CPU 6 instructions: 190000003 cycles: 47511821 heartbeat IPC: 4 cumulative IPC: 3.999 (Simulation time: 03 hr 12 min 51 sec)
Heartbeat CPU 7 instructions: 190000007 cycles: 47511960 heartbeat IPC: 4 cumulative IPC: 3.999 (Simulation time: 03 hr 12 min 51 sec)
Heartbeat CPU 2 instructions: 190000006 cycles: 47514465 heartbeat IPC: 4 cumulative IPC: 3.999 (Simulation time: 03 hr 12 min 52 sec)
Heartbeat CPU 1 instructions: 110000014 cycles: 48284901 heartbeat IPC: 2.431 cumulative IPC: 2.278 (Simulation time: 03 hr 16 min 02 sec)
Heartbeat CPU 4 instructions: 200000002 cycles: 50011537 heartbeat IPC: 4 cumulative IPC: 3.999 (Simulation time: 03 hr 23 min 08 sec)
Heartbeat CPU 3 instructions: 200000008 cycles: 50011610 heartbeat IPC: 4 cumulative IPC: 3.999 (Simulation time: 03 hr 23 min 09 sec)
Heartbeat CPU 5 instructions: 200000009 cycles: 50011619 heartbeat IPC: 4 cumulative IPC: 3.999 (Simulation time: 03 hr 23 min 09 sec)
Heartbeat CPU 6 instructions: 200000003 cycles: 50011821 heartbeat IPC: 4 cumulative IPC: 3.999 (Simulation time: 03 hr 23 min 09 sec)
Heartbeat CPU 7 instructions: 200000007 cycles: 50011960 heartbeat IPC: 4 cumulative IPC: 3.999 (Simulation time: 03 hr 23 min 09 sec)
Heartbeat CPU 2 instructions: 200000006 cycles: 50014465 heartbeat IPC: 4 cumulative IPC: 3.999 (Simulation time: 03 hr 23 min 09 sec)
Heartbeat CPU 4 instructions: 210000002 cycles: 52511537 heartbeat IPC: 4 cumulative IPC: 3.999 (Simulation time: 03 hr 33 min 10 sec)
Heartbeat CPU 3 instructions: 210000008 cycles: 52511610 heartbeat IPC: 4 cumulative IPC: 3.999 (Simulation time: 03 hr 33 min 10 sec)
Heartbeat CPU 5 instructions: 210000009 cycles: 52511619 heartbeat IPC: 4 cumulative IPC: 3.999 (Simulation time: 03 hr 33 min 10 sec)
Heartbeat CPU 6 instructions: 210000003 cycles: 52511821 heartbeat IPC: 4 cumulative IPC: 3.999 (Simulation time: 03 hr 33 min 10 sec)
Heartbeat CPU 7 instructions: 210000007 cycles: 52511960 heartbeat IPC: 4 cumulative IPC: 3.999 (Simulation time: 03 hr 33 min 10 sec)
Heartbeat CPU 2 instructions: 210000006 cycles: 52514465 heartbeat IPC: 4 cumulative IPC: 3.999 (Simulation time: 03 hr 33 min 10 sec)
Heartbeat CPU 1 instructions: 120000014 cycles: 53228874 heartbeat IPC: 2.023 cumulative IPC: 2.254 (Simulation time: 03 hr 35 min 57 sec)
Heartbeat CPU 4 instructions: 220000002 cycles: 55011537 heartbeat IPC: 4 cumulative IPC: 3.999 (Simulation time: 03 hr 42 min 53 sec)
Heartbeat CPU 3 instructions: 220000008 cycles: 55011610 heartbeat IPC: 4 cumulative IPC: 3.999 (Simulation time: 03 hr 42 min 53 sec)
Heartbeat CPU 5 instructions: 220000009 cycles: 55011619 heartbeat IPC: 4 cumulative IPC: 3.999 (Simulation time: 03 hr 42 min 53 sec)
Heartbeat CPU 6 instructions: 220000003 cycles: 55011821 heartbeat IPC: 4 cumulative IPC: 3.999 (Simulation time: 03 hr 42 min 53 sec)
Heartbeat CPU 7 instructions: 220000007 cycles: 55011960 heartbeat IPC: 4 cumulative IPC: 3.999 (Simulation time: 03 hr 42 min 53 sec)
Heartbeat CPU 2 instructions: 220000006 cycles: 55014465 heartbeat IPC: 4 cumulative IPC: 3.999 (Simulation time: 03 hr 42 min 54 sec)
*** Reached end of trace: (2, "traces/ocean_8t/ocean2.champsimtrace")
*** Reached end of trace: (5, "traces/ocean_8t/ocean5.champsimtrace")
*** Reached end of trace: (4, "traces/ocean_8t/ocean4.champsimtrace")
*** Reached end of trace: (6, "traces/ocean_8t/ocean6.champsimtrace")
*** Reached end of trace: (3, "traces/ocean_8t/ocean3.champsimtrace")
*** Reached end of trace: (7, "traces/ocean_8t/ocean7.champsimtrace")
Heartbeat CPU 4 instructions: 230000002 cycles: 57511537 heartbeat IPC: 4 cumulative IPC: 3.999 (Simulation time: 03 hr 52 min 44 sec)
Heartbeat CPU 3 instructions: 230000008 cycles: 57511610 heartbeat IPC: 4 cumulative IPC: 3.999 (Simulation time: 03 hr 52 min 44 sec)
Heartbeat CPU 5 instructions: 230000009 cycles: 57511619 heartbeat IPC: 4 cumulative IPC: 3.999 (Simulation time: 03 hr 52 min 44 sec)
Heartbeat CPU 6 instructions: 230000003 cycles: 57511821 heartbeat IPC: 4 cumulative IPC: 3.999 (Simulation time: 03 hr 52 min 44 sec)
Heartbeat CPU 7 instructions: 230000007 cycles: 57511960 heartbeat IPC: 4 cumulative IPC: 3.999 (Simulation time: 03 hr 52 min 44 sec)
Heartbeat CPU 2 instructions: 230000006 cycles: 57514465 heartbeat IPC: 4 cumulative IPC: 3.999 (Simulation time: 03 hr 52 min 44 sec)
Heartbeat CPU 1 instructions: 130000015 cycles: 57727041 heartbeat IPC: 2.223 cumulative IPC: 2.252 (Simulation time: 03 hr 53 min 34 sec)
Heartbeat CPU 4 instructions: 240000002 cycles: 60011537 heartbeat IPC: 4 cumulative IPC: 3.999 (Simulation time: 04 hr 02 min 25 sec)
Heartbeat CPU 3 instructions: 240000008 cycles: 60011610 heartbeat IPC: 4 cumulative IPC: 3.999 (Simulation time: 04 hr 02 min 25 sec)
Heartbeat CPU 5 instructions: 240000009 cycles: 60011619 heartbeat IPC: 4 cumulative IPC: 3.999 (Simulation time: 04 hr 02 min 25 sec)
Heartbeat CPU 6 instructions: 240000003 cycles: 60011821 heartbeat IPC: 4 cumulative IPC: 3.999 (Simulation time: 04 hr 02 min 25 sec)
Heartbeat CPU 7 instructions: 240000007 cycles: 60011960 heartbeat IPC: 4 cumulative IPC: 3.999 (Simulation time: 04 hr 02 min 25 sec)
Heartbeat CPU 2 instructions: 240000006 cycles: 60014465 heartbeat IPC: 4 cumulative IPC: 3.999 (Simulation time: 04 hr 02 min 25 sec)
*** Reached end of trace: (1, "traces/ocean_8t/ocean1.champsimtrace")
Heartbeat CPU 1 instructions: 140000015 cycles: 61466952 heartbeat IPC: 2.674 cumulative IPC: 2.278 (Simulation time: 04 hr 08 min 03 sec)
Heartbeat CPU 0 instructions: 30000005 cycles: 62368835 heartbeat IPC: 0.4966 cumulative IPC: 0.481 (Simulation time: 04 hr 11 min 31 sec)
Heartbeat CPU 4 instructions: 250000002 cycles: 62511537 heartbeat IPC: 4 cumulative IPC: 3.999 (Simulation time: 04 hr 12 min 04 sec)
Heartbeat CPU 3 instructions: 250000008 cycles: 62511610 heartbeat IPC: 4 cumulative IPC: 3.999 (Simulation time: 04 hr 12 min 04 sec)
Heartbeat CPU 5 instructions: 250000009 cycles: 62511619 heartbeat IPC: 4 cumulative IPC: 3.999 (Simulation time: 04 hr 12 min 04 sec)
Heartbeat CPU 6 instructions: 250000003 cycles: 62511821 heartbeat IPC: 4 cumulative IPC: 3.999 (Simulation time: 04 hr 12 min 04 sec)
Heartbeat CPU 7 instructions: 250000007 cycles: 62511960 heartbeat IPC: 4 cumulative IPC: 3.999 (Simulation time: 04 hr 12 min 04 sec)
Heartbeat CPU 2 instructions: 250000006 cycles: 62514465 heartbeat IPC: 4 cumulative IPC: 3.999 (Simulation time: 04 hr 12 min 05 sec)
Heartbeat CPU 4 instructions: 260000002 cycles: 65011537 heartbeat IPC: 4 cumulative IPC: 3.999 (Simulation time: 04 hr 21 min 45 sec)
Heartbeat CPU 3 instructions: 260000008 cycles: 65011610 heartbeat IPC: 4 cumulative IPC: 3.999 (Simulation time: 04 hr 21 min 45 sec)
Heartbeat CPU 5 instructions: 260000009 cycles: 65011619 heartbeat IPC: 4 cumulative IPC: 3.999 (Simulation time: 04 hr 21 min 45 sec)
Heartbeat CPU 6 instructions: 260000003 cycles: 65011821 heartbeat IPC: 4 cumulative IPC: 3.999 (Simulation time: 04 hr 21 min 45 sec)
Heartbeat CPU 7 instructions: 260000007 cycles: 65011960 heartbeat IPC: 4 cumulative IPC: 3.999 (Simulation time: 04 hr 21 min 45 sec)
Heartbeat CPU 2 instructions: 260000006 cycles: 65014465 heartbeat IPC: 4 cumulative IPC: 3.999 (Simulation time: 04 hr 21 min 46 sec)
Heartbeat CPU 1 instructions: 150000015 cycles: 65674270 heartbeat IPC: 2.377 cumulative IPC: 2.284 (Simulation time: 04 hr 24 min 20 sec)
Heartbeat CPU 4 instructions: 270000002 cycles: 67511537 heartbeat IPC: 4 cumulative IPC: 3.999 (Simulation time: 04 hr 31 min 18 sec)
Heartbeat CPU 3 instructions: 270000008 cycles: 67511610 heartbeat IPC: 4 cumulative IPC: 3.999 (Simulation time: 04 hr 31 min 18 sec)
Heartbeat CPU 5 instructions: 270000009 cycles: 67511619 heartbeat IPC: 4 cumulative IPC: 3.999 (Simulation time: 04 hr 31 min 18 sec)
Heartbeat CPU 6 instructions: 270000003 cycles: 67511821 heartbeat IPC: 4 cumulative IPC: 3.999 (Simulation time: 04 hr 31 min 18 sec)
Heartbeat CPU 7 instructions: 270000007 cycles: 67511960 heartbeat IPC: 4 cumulative IPC: 3.999 (Simulation time: 04 hr 31 min 18 sec)
Heartbeat CPU 2 instructions: 270000006 cycles: 67514465 heartbeat IPC: 4 cumulative IPC: 3.999 (Simulation time: 04 hr 31 min 18 sec)
*** Reached end of trace: (2, "traces/ocean_8t/ocean2.champsimtrace")
*** Reached end of trace: (5, "traces/ocean_8t/ocean5.champsimtrace")
*** Reached end of trace: (4, "traces/ocean_8t/ocean4.champsimtrace")
*** Reached end of trace: (6, "traces/ocean_8t/ocean6.champsimtrace")
*** Reached end of trace: (3, "traces/ocean_8t/ocean3.champsimtrace")
*** Reached end of trace: (7, "traces/ocean_8t/ocean7.champsimtrace")
Heartbeat CPU 1 instructions: 160000018 cycles: 69812134 heartbeat IPC: 2.417 cumulative IPC: 2.292 (Simulation time: 04 hr 40 min 17 sec)
Heartbeat CPU 4 instructions: 280000002 cycles: 70011537 heartbeat IPC: 4 cumulative IPC: 3.999 (Simulation time: 04 hr 41 min 03 sec)
Heartbeat CPU 3 instructions: 280000008 cycles: 70011610 heartbeat IPC: 4 cumulative IPC: 3.999 (Simulation time: 04 hr 41 min 03 sec)
Heartbeat CPU 5 instructions: 280000009 cycles: 70011619 heartbeat IPC: 4 cumulative IPC: 3.999 (Simulation time: 04 hr 41 min 03 sec)
Heartbeat CPU 6 instructions: 280000003 cycles: 70011821 heartbeat IPC: 4 cumulative IPC: 3.999 (Simulation time: 04 hr 41 min 04 sec)
Heartbeat CPU 7 instructions: 280000007 cycles: 70011960 heartbeat IPC: 4 cumulative IPC: 3.999 (Simulation time: 04 hr 41 min 04 sec)
Heartbeat CPU 2 instructions: 280000006 cycles: 70014465 heartbeat IPC: 4 cumulative IPC: 3.999 (Simulation time: 04 hr 41 min 04 sec)
Heartbeat CPU 4 instructions: 290000002 cycles: 72511537 heartbeat IPC: 4 cumulative IPC: 3.999 (Simulation time: 04 hr 50 min 42 sec)
Heartbeat CPU 3 instructions: 290000008 cycles: 72511610 heartbeat IPC: 4 cumulative IPC: 3.999 (Simulation time: 04 hr 50 min 42 sec)
Heartbeat CPU 5 instructions: 290000009 cycles: 72511619 heartbeat IPC: 4 cumulative IPC: 3.999 (Simulation time: 04 hr 50 min 42 sec)
Heartbeat CPU 6 instructions: 290000003 cycles: 72511821 heartbeat IPC: 4 cumulative IPC: 3.999 (Simulation time: 04 hr 50 min 42 sec)
Heartbeat CPU 7 instructions: 290000007 cycles: 72511960 heartbeat IPC: 4 cumulative IPC: 3.999 (Simulation time: 04 hr 50 min 42 sec)
Heartbeat CPU 2 instructions: 290000006 cycles: 72514465 heartbeat IPC: 4 cumulative IPC: 3.999 (Simulation time: 04 hr 50 min 43 sec)
Heartbeat CPU 4 instructions: 300000002 cycles: 75011537 heartbeat IPC: 4 cumulative IPC: 3.999 (Simulation time: 05 hr 00 min 36 sec)
Heartbeat CPU 3 instructions: 300000008 cycles: 75011610 heartbeat IPC: 4 cumulative IPC: 3.999 (Simulation time: 05 hr 00 min 36 sec)
Heartbeat CPU 5 instructions: 300000009 cycles: 75011619 heartbeat IPC: 4 cumulative IPC: 3.999 (Simulation time: 05 hr 00 min 36 sec)
Heartbeat CPU 6 instructions: 300000003 cycles: 75011821 heartbeat IPC: 4 cumulative IPC: 3.999 (Simulation time: 05 hr 00 min 36 sec)
Heartbeat CPU 7 instructions: 300000007 cycles: 75011960 heartbeat IPC: 4 cumulative IPC: 3.999 (Simulation time: 05 hr 00 min 36 sec)
Heartbeat CPU 2 instructions: 300000006 cycles: 75014465 heartbeat IPC: 4 cumulative IPC: 3.999 (Simulation time: 05 hr 00 min 37 sec)
Heartbeat CPU 1 instructions: 170000018 cycles: 75397524 heartbeat IPC: 1.79 cumulative IPC: 2.255 (Simulation time: 05 hr 02 min 11 sec)
Heartbeat CPU 4 instructions: 310000002 cycles: 77511537 heartbeat IPC: 4 cumulative IPC: 3.999 (Simulation time: 05 hr 10 min 48 sec)
Heartbeat CPU 3 instructions: 310000008 cycles: 77511610 heartbeat IPC: 4 cumulative IPC: 3.999 (Simulation time: 05 hr 10 min 48 sec)
Heartbeat CPU 5 instructions: 310000009 cycles: 77511619 heartbeat IPC: 4 cumulative IPC: 3.999 (Simulation time: 05 hr 10 min 48 sec)
Heartbeat CPU 6 instructions: 310000003 cycles: 77511821 heartbeat IPC: 4 cumulative IPC: 3.999 (Simulation time: 05 hr 10 min 48 sec)
Heartbeat CPU 7 instructions: 310000007 cycles: 77511960 heartbeat IPC: 4 cumulative IPC: 3.999 (Simulation time: 05 hr 10 min 48 sec)
Heartbeat CPU 2 instructions: 310000006 cycles: 77514465 heartbeat IPC: 4 cumulative IPC: 3.999 (Simulation time: 05 hr 10 min 48 sec)
Heartbeat CPU 1 instructions: 180000021 cycles: 78957038 heartbeat IPC: 2.809 cumulative IPC: 2.28 (Simulation time: 05 hr 16 min 39 sec)
*** Reached end of trace: (2, "traces/ocean_8t/ocean2.champsimtrace")
*** Reached end of trace: (5, "traces/ocean_8t/ocean5.champsimtrace")
*** Reached end of trace: (4, "traces/ocean_8t/ocean4.champsimtrace")
*** Reached end of trace: (6, "traces/ocean_8t/ocean6.champsimtrace")
*** Reached end of trace: (3, "traces/ocean_8t/ocean3.champsimtrace")
*** Reached end of trace: (7, "traces/ocean_8t/ocean7.champsimtrace")
*** Reached end of trace: (1, "traces/ocean_8t/ocean1.champsimtrace")
Heartbeat CPU 4 instructions: 320000002 cycles: 80011537 heartbeat IPC: 4 cumulative IPC: 3.999 (Simulation time: 05 hr 20 min 54 sec)
Heartbeat CPU 3 instructions: 320000008 cycles: 80011610 heartbeat IPC: 4 cumulative IPC: 3.999 (Simulation time: 05 hr 20 min 54 sec)
Heartbeat CPU 5 instructions: 320000009 cycles: 80011619 heartbeat IPC: 4 cumulative IPC: 3.999 (Simulation time: 05 hr 20 min 54 sec)
Heartbeat CPU 6 instructions: 320000003 cycles: 80011821 heartbeat IPC: 4 cumulative IPC: 3.999 (Simulation time: 05 hr 20 min 54 sec)
Heartbeat CPU 7 instructions: 320000007 cycles: 80011960 heartbeat IPC: 4 cumulative IPC: 3.999 (Simulation time: 05 hr 20 min 54 sec)
Heartbeat CPU 2 instructions: 320000006 cycles: 80014465 heartbeat IPC: 4 cumulative IPC: 3.999 (Simulation time: 05 hr 20 min 55 sec)
Heartbeat CPU 4 instructions: 330000002 cycles: 82511537 heartbeat IPC: 4 cumulative IPC: 3.999 (Simulation time: 05 hr 31 min 00 sec)
Heartbeat CPU 3 instructions: 330000008 cycles: 82511610 heartbeat IPC: 4 cumulative IPC: 3.999 (Simulation time: 05 hr 31 min 00 sec)
Heartbeat CPU 5 instructions: 330000009 cycles: 82511619 heartbeat IPC: 4 cumulative IPC: 3.999 (Simulation time: 05 hr 31 min 00 sec)
Heartbeat CPU 6 instructions: 330000003 cycles: 82511821 heartbeat IPC: 4 cumulative IPC: 3.999 (Simulation time: 05 hr 31 min 00 sec)
Heartbeat CPU 7 instructions: 330000007 cycles: 82511960 heartbeat IPC: 4 cumulative IPC: 3.999 (Simulation time: 05 hr 31 min 00 sec)
Heartbeat CPU 2 instructions: 330000006 cycles: 82514465 heartbeat IPC: 4 cumulative IPC: 3.999 (Simulation time: 05 hr 31 min 00 sec)
Heartbeat CPU 1 instructions: 190000024 cycles: 82971017 heartbeat IPC: 2.491 cumulative IPC: 2.29 (Simulation time: 05 hr 32 min 50 sec)
Heartbeat CPU 0 instructions: 40000006 cycles: 84854160 heartbeat IPC: 0.4447 cumulative IPC: 0.4714 (Simulation time: 05 hr 40 min 24 sec)
Heartbeat CPU 4 instructions: 340000002 cycles: 85011537 heartbeat IPC: 4 cumulative IPC: 3.999 (Simulation time: 05 hr 41 min 03 sec)
Heartbeat CPU 3 instructions: 340000008 cycles: 85011610 heartbeat IPC: 4 cumulative IPC: 3.999 (Simulation time: 05 hr 41 min 03 sec)
Heartbeat CPU 5 instructions: 340000009 cycles: 85011619 heartbeat IPC: 4 cumulative IPC: 3.999 (Simulation time: 05 hr 41 min 03 sec)
Heartbeat CPU 6 instructions: 340000003 cycles: 85011821 heartbeat IPC: 4 cumulative IPC: 3.999 (Simulation time: 05 hr 41 min 03 sec)
Heartbeat CPU 7 instructions: 340000007 cycles: 85011960 heartbeat IPC: 4 cumulative IPC: 3.999 (Simulation time: 05 hr 41 min 03 sec)
Heartbeat CPU 2 instructions: 340000006 cycles: 85014465 heartbeat IPC: 4 cumulative IPC: 3.999 (Simulation time: 05 hr 41 min 04 sec)
Heartbeat CPU 1 instructions: 200000024 cycles: 87070411 heartbeat IPC: 2.439 cumulative IPC: 2.297 (Simulation time: 05 hr 49 min 05 sec)
Heartbeat CPU 4 instructions: 350000002 cycles: 87511537 heartbeat IPC: 4 cumulative IPC: 3.999 (Simulation time: 05 hr 50 min 49 sec)
Heartbeat CPU 3 instructions: 350000008 cycles: 87511610 heartbeat IPC: 4 cumulative IPC: 3.999 (Simulation time: 05 hr 50 min 49 sec)
Heartbeat CPU 5 instructions: 350000009 cycles: 87511619 heartbeat IPC: 4 cumulative IPC: 3.999 (Simulation time: 05 hr 50 min 49 sec)
Heartbeat CPU 6 instructions: 350000003 cycles: 87511821 heartbeat IPC: 4 cumulative IPC: 3.999 (Simulation time: 05 hr 50 min 49 sec)
Heartbeat CPU 7 instructions: 350000007 cycles: 87511960 heartbeat IPC: 4 cumulative IPC: 3.999 (Simulation time: 05 hr 50 min 49 sec)
Heartbeat CPU 2 instructions: 350000006 cycles: 87514465 heartbeat IPC: 4 cumulative IPC: 3.999 (Simulation time: 05 hr 50 min 50 sec)
Heartbeat CPU 4 instructions: 360000002 cycles: 90011537 heartbeat IPC: 4 cumulative IPC: 3.999 (Simulation time: 06 hr 00 min 37 sec)
Heartbeat CPU 3 instructions: 360000008 cycles: 90011610 heartbeat IPC: 4 cumulative IPC: 3.999 (Simulation time: 06 hr 00 min 37 sec)
Heartbeat CPU 5 instructions: 360000009 cycles: 90011619 heartbeat IPC: 4 cumulative IPC: 3.999 (Simulation time: 06 hr 00 min 37 sec)
Heartbeat CPU 6 instructions: 360000003 cycles: 90011821 heartbeat IPC: 4 cumulative IPC: 3.999 (Simulation time: 06 hr 00 min 37 sec)
Heartbeat CPU 7 instructions: 360000007 cycles: 90011960 heartbeat IPC: 4 cumulative IPC: 3.999 (Simulation time: 06 hr 00 min 38 sec)
Heartbeat CPU 2 instructions: 360000006 cycles: 90014465 heartbeat IPC: 4 cumulative IPC: 3.999 (Simulation time: 06 hr 00 min 38 sec)
*** Reached end of trace: (2, "traces/ocean_8t/ocean2.champsimtrace")
*** Reached end of trace: (5, "traces/ocean_8t/ocean5.champsimtrace")
*** Reached end of trace: (4, "traces/ocean_8t/ocean4.champsimtrace")
*** Reached end of trace: (6, "traces/ocean_8t/ocean6.champsimtrace")
*** Reached end of trace: (3, "traces/ocean_8t/ocean3.champsimtrace")
*** Reached end of trace: (7, "traces/ocean_8t/ocean7.champsimtrace")
Heartbeat CPU 1 instructions: 210000025 cycles: 91835162 heartbeat IPC: 2.099 cumulative IPC: 2.287 (Simulation time: 06 hr 07 min 26 sec)
Heartbeat CPU 4 instructions: 370000002 cycles: 92511537 heartbeat IPC: 4 cumulative IPC: 4 (Simulation time: 06 hr 09 min 57 sec)
Heartbeat CPU 3 instructions: 370000008 cycles: 92511610 heartbeat IPC: 4 cumulative IPC: 3.999 (Simulation time: 06 hr 09 min 57 sec)
Heartbeat CPU 5 instructions: 370000009 cycles: 92511619 heartbeat IPC: 4 cumulative IPC: 3.999 (Simulation time: 06 hr 09 min 57 sec)
Heartbeat CPU 6 instructions: 370000003 cycles: 92511821 heartbeat IPC: 4 cumulative IPC: 3.999 (Simulation time: 06 hr 09 min 57 sec)
Heartbeat CPU 7 instructions: 370000007 cycles: 92511960 heartbeat IPC: 4 cumulative IPC: 3.999 (Simulation time: 06 hr 09 min 57 sec)
Heartbeat CPU 2 instructions: 370000006 cycles: 92514465 heartbeat IPC: 4 cumulative IPC: 3.999 (Simulation time: 06 hr 09 min 57 sec)
Heartbeat CPU 4 instructions: 380000002 cycles: 95011537 heartbeat IPC: 4 cumulative IPC: 4 (Simulation time: 06 hr 19 min 14 sec)
Heartbeat CPU 3 instructions: 380000008 cycles: 95011610 heartbeat IPC: 4 cumulative IPC: 4 (Simulation time: 06 hr 19 min 14 sec)
Heartbeat CPU 5 instructions: 380000009 cycles: 95011619 heartbeat IPC: 4 cumulative IPC: 4 (Simulation time: 06 hr 19 min 14 sec)
Heartbeat CPU 6 instructions: 380000003 cycles: 95011821 heartbeat IPC: 4 cumulative IPC: 4 (Simulation time: 06 hr 19 min 14 sec)
Heartbeat CPU 7 instructions: 380000007 cycles: 95011960 heartbeat IPC: 4 cumulative IPC: 3.999 (Simulation time: 06 hr 19 min 14 sec)
Heartbeat CPU 2 instructions: 380000006 cycles: 95014465 heartbeat IPC: 4 cumulative IPC: 3.999 (Simulation time: 06 hr 19 min 14 sec)
Heartbeat CPU 1 instructions: 220000026 cycles: 96564393 heartbeat IPC: 2.115 cumulative IPC: 2.278 (Simulation time: 06 hr 25 min 01 sec)
Heartbeat CPU 4 instructions: 390000002 cycles: 97511537 heartbeat IPC: 4 cumulative IPC: 4 (Simulation time: 06 hr 28 min 35 sec)
Heartbeat CPU 3 instructions: 390000008 cycles: 97511610 heartbeat IPC: 4 cumulative IPC: 4 (Simulation time: 06 hr 28 min 35 sec)
Heartbeat CPU 5 instructions: 390000009 cycles: 97511619 heartbeat IPC: 4 cumulative IPC: 4 (Simulation time: 06 hr 28 min 35 sec)
Heartbeat CPU 6 instructions: 390000003 cycles: 97511821 heartbeat IPC: 4 cumulative IPC: 4 (Simulation time: 06 hr 28 min 35 sec)
Heartbeat CPU 7 instructions: 390000007 cycles: 97511960 heartbeat IPC: 4 cumulative IPC: 4 (Simulation time: 06 hr 28 min 35 sec)
Heartbeat CPU 2 instructions: 390000006 cycles: 97514465 heartbeat IPC: 4 cumulative IPC: 3.999 (Simulation time: 06 hr 28 min 36 sec)
*** Reached end of trace: (0, "traces/ocean_8t/ocean0.champsimtrace")
*** Reached end of trace: (1, "traces/ocean_8t/ocean1.champsimtrace")
Heartbeat CPU 4 instructions: 400000002 cycles: 100011537 heartbeat IPC: 4 cumulative IPC: 4 (Simulation time: 06 hr 38 min 00 sec)
Heartbeat CPU 3 instructions: 400000008 cycles: 100011610 heartbeat IPC: 4 cumulative IPC: 4 (Simulation time: 06 hr 38 min 00 sec)
Heartbeat CPU 5 instructions: 400000009 cycles: 100011619 heartbeat IPC: 4 cumulative IPC: 4 (Simulation time: 06 hr 38 min 00 sec)
Heartbeat CPU 6 instructions: 400000003 cycles: 100011821 heartbeat IPC: 4 cumulative IPC: 4 (Simulation time: 06 hr 38 min 01 sec)
Heartbeat CPU 7 instructions: 400000007 cycles: 100011960 heartbeat IPC: 4 cumulative IPC: 4 (Simulation time: 06 hr 38 min 01 sec)
Heartbeat CPU 2 instructions: 400000006 cycles: 100014465 heartbeat IPC: 4 cumulative IPC: 3.999 (Simulation time: 06 hr 38 min 01 sec)
Heartbeat CPU 1 instructions: 230000028 cycles: 100286078 heartbeat IPC: 2.687 cumulative IPC: 2.293 (Simulation time: 06 hr 39 min 01 sec)
*** Reached end of trace: (2, "traces/ocean_8t/ocean2.champsimtrace")
*** Reached end of trace: (5, "traces/ocean_8t/ocean5.champsimtrace")
*** Reached end of trace: (4, "traces/ocean_8t/ocean4.champsimtrace")
*** Reached end of trace: (6, "traces/ocean_8t/ocean6.champsimtrace")
*** Reached end of trace: (3, "traces/ocean_8t/ocean3.champsimtrace")
*** Reached end of trace: (7, "traces/ocean_8t/ocean7.champsimtrace")
Heartbeat CPU 4 instructions: 410000002 cycles: 102511537 heartbeat IPC: 4 cumulative IPC: 4 (Simulation time: 06 hr 47 min 17 sec)
Heartbeat CPU 3 instructions: 410000008 cycles: 102511610 heartbeat IPC: 4 cumulative IPC: 4 (Simulation time: 06 hr 47 min 17 sec)
Heartbeat CPU 5 instructions: 410000009 cycles: 102511619 heartbeat IPC: 4 cumulative IPC: 4 (Simulation time: 06 hr 47 min 17 sec)
Heartbeat CPU 6 instructions: 410000003 cycles: 102511821 heartbeat IPC: 4 cumulative IPC: 4 (Simulation time: 06 hr 47 min 17 sec)
Heartbeat CPU 7 instructions: 410000007 cycles: 102511960 heartbeat IPC: 4 cumulative IPC: 4 (Simulation time: 06 hr 47 min 17 sec)
Heartbeat CPU 2 instructions: 410000006 cycles: 102514465 heartbeat IPC: 4 cumulative IPC: 3.999 (Simulation time: 06 hr 47 min 17 sec)
Heartbeat CPU 1 instructions: 240000029 cycles: 104467174 heartbeat IPC: 2.392 cumulative IPC: 2.297 (Simulation time: 06 hr 53 min 40 sec)
Heartbeat CPU 4 instructions: 420000002 cycles: 105011537 heartbeat IPC: 4 cumulative IPC: 4 (Simulation time: 06 hr 55 min 43 sec)
Heartbeat CPU 3 instructions: 420000008 cycles: 105011610 heartbeat IPC: 4 cumulative IPC: 4 (Simulation time: 06 hr 55 min 43 sec)
Heartbeat CPU 5 instructions: 420000009 cycles: 105011619 heartbeat IPC: 4 cumulative IPC: 4 (Simulation time: 06 hr 55 min 43 sec)
Heartbeat CPU 6 instructions: 420000003 cycles: 105011821 heartbeat IPC: 4 cumulative IPC: 4 (Simulation time: 06 hr 55 min 43 sec)
Heartbeat CPU 7 instructions: 420000007 cycles: 105011960 heartbeat IPC: 4 cumulative IPC: 4 (Simulation time: 06 hr 55 min 43 sec)
Heartbeat CPU 2 instructions: 420000006 cycles: 105014465 heartbeat IPC: 4 cumulative IPC: 3.999 (Simulation time: 06 hr 55 min 44 sec)
Warmup finished CPU 0 instructions: 50000000 cycles: 106715627 cumulative IPC: 0.4685 (Simulation time: 07 hr 02 min 00 sec)
Warmup complete CPU 7 instructions: 426814675 cycles: 106715627 cumulative IPC: 4 (Simulation time: 07 hr 02 min 00 sec)
Warmup complete CPU 6 instructions: 426815227 cycles: 106715627 cumulative IPC: 4 (Simulation time: 07 hr 02 min 00 sec)
Warmup complete CPU 5 instructions: 426816041 cycles: 106715627 cumulative IPC: 4 (Simulation time: 07 hr 02 min 00 sec)
Warmup complete CPU 4 instructions: 426816362 cycles: 106715627 cumulative IPC: 4 (Simulation time: 07 hr 02 min 00 sec)
Warmup complete CPU 3 instructions: 426816076 cycles: 106715627 cumulative IPC: 4 (Simulation time: 07 hr 02 min 00 sec)
Warmup complete CPU 2 instructions: 426804654 cycles: 106715627 cumulative IPC: 3.999 (Simulation time: 07 hr 02 min 00 sec)
Warmup complete CPU 1 instructions: 245632539 cycles: 106715627 cumulative IPC: 2.302 (Simulation time: 07 hr 02 min 00 sec)
Warmup complete CPU 0 instructions: 50000000 cycles: 106715627 cumulative IPC: 0.4685 (Simulation time: 07 hr 02 min 00 sec)
Heartbeat CPU 0 instructions: 50000008 cycles: 106715829 heartbeat IPC: 0.4574 cumulative IPC: 0.0396 (Simulation time: 07 hr 02 min 00 sec)
Heartbeat CPU 4 instructions: 430000002 cycles: 107511537 heartbeat IPC: 4 cumulative IPC: 4 (Simulation time: 07 hr 05 min 02 sec)
Heartbeat CPU 3 instructions: 430000008 cycles: 107511610 heartbeat IPC: 4 cumulative IPC: 4 (Simulation time: 07 hr 05 min 02 sec)
Heartbeat CPU 5 instructions: 430000009 cycles: 107511619 heartbeat IPC: 4 cumulative IPC: 4 (Simulation time: 07 hr 05 min 02 sec)
Heartbeat CPU 6 instructions: 430000003 cycles: 107511821 heartbeat IPC: 4 cumulative IPC: 4 (Simulation time: 07 hr 05 min 02 sec)
Heartbeat CPU 7 instructions: 430000007 cycles: 107511960 heartbeat IPC: 4 cumulative IPC: 4 (Simulation time: 07 hr 05 min 02 sec)
Heartbeat CPU 2 instructions: 430000006 cycles: 107514465 heartbeat IPC: 4 cumulative IPC: 4 (Simulation time: 07 hr 05 min 02 sec)
Heartbeat CPU 4 instructions: 440000002 cycles: 110011537 heartbeat IPC: 4 cumulative IPC: 4 (Simulation time: 07 hr 14 min 36 sec)
Heartbeat CPU 3 instructions: 440000008 cycles: 110011610 heartbeat IPC: 4 cumulative IPC: 4 (Simulation time: 07 hr 14 min 36 sec)
Heartbeat CPU 5 instructions: 440000009 cycles: 110011619 heartbeat IPC: 4 cumulative IPC: 4 (Simulation time: 07 hr 14 min 36 sec)
Heartbeat CPU 6 instructions: 440000003 cycles: 110011821 heartbeat IPC: 4 cumulative IPC: 4 (Simulation time: 07 hr 14 min 36 sec)
Heartbeat CPU 7 instructions: 440000007 cycles: 110011960 heartbeat IPC: 4 cumulative IPC: 4 (Simulation time: 07 hr 14 min 36 sec)
Heartbeat CPU 2 instructions: 440000006 cycles: 110014465 heartbeat IPC: 4 cumulative IPC: 4 (Simulation time: 07 hr 14 min 37 sec)
Heartbeat CPU 4 instructions: 450000002 cycles: 112511537 heartbeat IPC: 4 cumulative IPC: 4 (Simulation time: 07 hr 24 min 03 sec)
Heartbeat CPU 3 instructions: 450000008 cycles: 112511610 heartbeat IPC: 4 cumulative IPC: 4 (Simulation time: 07 hr 24 min 03 sec)
Heartbeat CPU 5 instructions: 450000009 cycles: 112511619 heartbeat IPC: 4 cumulative IPC: 4 (Simulation time: 07 hr 24 min 03 sec)
Heartbeat CPU 6 instructions: 450000003 cycles: 112511821 heartbeat IPC: 4 cumulative IPC: 4 (Simulation time: 07 hr 24 min 03 sec)
Heartbeat CPU 7 instructions: 450000007 cycles: 112511960 heartbeat IPC: 4 cumulative IPC: 4 (Simulation time: 07 hr 24 min 03 sec)
Heartbeat CPU 2 instructions: 450000006 cycles: 112514465 heartbeat IPC: 4 cumulative IPC: 4 (Simulation time: 07 hr 24 min 04 sec)
*** Reached end of trace: (2, "traces/ocean_8t/ocean2.champsimtrace")
*** Reached end of trace: (5, "traces/ocean_8t/ocean5.champsimtrace")
*** Reached end of trace: (4, "traces/ocean_8t/ocean4.champsimtrace")
*** Reached end of trace: (6, "traces/ocean_8t/ocean6.champsimtrace")
*** Reached end of trace: (3, "traces/ocean_8t/ocean3.champsimtrace")
*** Reached end of trace: (7, "traces/ocean_8t/ocean7.champsimtrace")
Heartbeat CPU 4 instructions: 460000004 cycles: 115011579 heartbeat IPC: 4 cumulative IPC: 4 (Simulation time: 07 hr 33 min 48 sec)
Heartbeat CPU 3 instructions: 460000010 cycles: 115011625 heartbeat IPC: 4 cumulative IPC: 4 (Simulation time: 07 hr 33 min 48 sec)
Heartbeat CPU 5 instructions: 460000009 cycles: 115011646 heartbeat IPC: 4 cumulative IPC: 4 (Simulation time: 07 hr 33 min 48 sec)
Heartbeat CPU 6 instructions: 460000003 cycles: 115011848 heartbeat IPC: 4 cumulative IPC: 4 (Simulation time: 07 hr 33 min 48 sec)
Heartbeat CPU 7 instructions: 460000008 cycles: 115011991 heartbeat IPC: 4 cumulative IPC: 4 (Simulation time: 07 hr 33 min 48 sec)
Heartbeat CPU 2 instructions: 460000007 cycles: 115014508 heartbeat IPC: 4 cumulative IPC: 4 (Simulation time: 07 hr 33 min 49 sec)
Heartbeat CPU 4 instructions: 470000004 cycles: 117511579 heartbeat IPC: 4 cumulative IPC: 4 (Simulation time: 07 hr 43 min 16 sec)
Heartbeat CPU 3 instructions: 470000010 cycles: 117511625 heartbeat IPC: 4 cumulative IPC: 4 (Simulation time: 07 hr 43 min 16 sec)
Heartbeat CPU 5 instructions: 470000009 cycles: 117511646 heartbeat IPC: 4 cumulative IPC: 4 (Simulation time: 07 hr 43 min 16 sec)
Heartbeat CPU 6 instructions: 470000003 cycles: 117511848 heartbeat IPC: 4 cumulative IPC: 4 (Simulation time: 07 hr 43 min 17 sec)
Heartbeat CPU 7 instructions: 470000008 cycles: 117511991 heartbeat IPC: 4 cumulative IPC: 4 (Simulation time: 07 hr 43 min 17 sec)
Heartbeat CPU 2 instructions: 470000007 cycles: 117514508 heartbeat IPC: 4 cumulative IPC: 4 (Simulation time: 07 hr 43 min 17 sec)
Heartbeat CPU 4 instructions: 480000004 cycles: 120011579 heartbeat IPC: 4 cumulative IPC: 4 (Simulation time: 07 hr 52 min 23 sec)
Heartbeat CPU 3 instructions: 480000010 cycles: 120011625 heartbeat IPC: 4 cumulative IPC: 4 (Simulation time: 07 hr 52 min 23 sec)
Heartbeat CPU 5 instructions: 480000009 cycles: 120011646 heartbeat IPC: 4 cumulative IPC: 4 (Simulation time: 07 hr 52 min 23 sec)
Heartbeat CPU 6 instructions: 480000003 cycles: 120011848 heartbeat IPC: 4 cumulative IPC: 4 (Simulation time: 07 hr 52 min 23 sec)
Heartbeat CPU 7 instructions: 480000008 cycles: 120011991 heartbeat IPC: 4 cumulative IPC: 4 (Simulation time: 07 hr 52 min 23 sec)
Heartbeat CPU 2 instructions: 480000007 cycles: 120014508 heartbeat IPC: 4 cumulative IPC: 4 (Simulation time: 07 hr 52 min 23 sec)
Heartbeat CPU 1 instructions: 250000029 cycles: 121437671 heartbeat IPC: 0.5893 cumulative IPC: 0.2967 (Simulation time: 07 hr 57 min 39 sec)
Heartbeat CPU 4 instructions: 490000004 cycles: 122511579 heartbeat IPC: 4 cumulative IPC: 4 (Simulation time: 08 hr 01 min 37 sec)
Heartbeat CPU 3 instructions: 490000010 cycles: 122511625 heartbeat IPC: 4 cumulative IPC: 4 (Simulation time: 08 hr 01 min 37 sec)
Heartbeat CPU 5 instructions: 490000009 cycles: 122511646 heartbeat IPC: 4 cumulative IPC: 4 (Simulation time: 08 hr 01 min 37 sec)
Heartbeat CPU 6 instructions: 490000003 cycles: 122511848 heartbeat IPC: 4 cumulative IPC: 4 (Simulation time: 08 hr 01 min 37 sec)
Heartbeat CPU 7 instructions: 490000008 cycles: 122511991 heartbeat IPC: 4 cumulative IPC: 4 (Simulation time: 08 hr 01 min 37 sec)
Heartbeat CPU 2 instructions: 490000007 cycles: 122514508 heartbeat IPC: 4 cumulative IPC: 4 (Simulation time: 08 hr 01 min 37 sec)
*** Reached end of trace: (2, "traces/ocean_8t/ocean2.champsimtrace")
*** Reached end of trace: (5, "traces/ocean_8t/ocean5.champsimtrace")
*** Reached end of trace: (4, "traces/ocean_8t/ocean4.champsimtrace")
*** Reached end of trace: (6, "traces/ocean_8t/ocean6.champsimtrace")
*** Reached end of trace: (3, "traces/ocean_8t/ocean3.champsimtrace")
Heartbeat CPU 4 instructions: 500000005 cycles: 125011612 heartbeat IPC: 4 cumulative IPC: 4 (Simulation time: 08 hr 10 min 55 sec)
Heartbeat CPU 3 instructions: 500000013 cycles: 125011640 heartbeat IPC: 4 cumulative IPC: 4 (Simulation time: 08 hr 10 min 55 sec)
Heartbeat CPU 5 instructions: 500000009 cycles: 125011667 heartbeat IPC: 4 cumulative IPC: 4 (Simulation time: 08 hr 10 min 55 sec)
Heartbeat CPU 6 instructions: 500000004 cycles: 125011881 heartbeat IPC: 4 cumulative IPC: 4 (Simulation time: 08 hr 10 min 55 sec)
Heartbeat CPU 7 instructions: 500000008 cycles: 125011991 heartbeat IPC: 4 cumulative IPC: 4 (Simulation time: 08 hr 10 min 55 sec)
Heartbeat CPU 2 instructions: 500000008 cycles: 125014551 heartbeat IPC: 4 cumulative IPC: 4 (Simulation time: 08 hr 10 min 56 sec)
*** Reached end of trace: (7, "traces/ocean_8t/ocean7.champsimtrace")
Heartbeat CPU 4 instructions: 510000005 cycles: 127511612 heartbeat IPC: 4 cumulative IPC: 4 (Simulation time: 08 hr 20 min 21 sec)
Heartbeat CPU 3 instructions: 510000013 cycles: 127511640 heartbeat IPC: 4 cumulative IPC: 4 (Simulation time: 08 hr 20 min 21 sec)
Heartbeat CPU 5 instructions: 510000009 cycles: 127511667 heartbeat IPC: 4 cumulative IPC: 4 (Simulation time: 08 hr 20 min 21 sec)
Heartbeat CPU 6 instructions: 510000004 cycles: 127511881 heartbeat IPC: 4 cumulative IPC: 4 (Simulation time: 08 hr 20 min 21 sec)
Heartbeat CPU 7 instructions: 510000010 cycles: 127512023 heartbeat IPC: 4 cumulative IPC: 4 (Simulation time: 08 hr 20 min 21 sec)
Heartbeat CPU 2 instructions: 510000008 cycles: 127514551 heartbeat IPC: 4 cumulative IPC: 4 (Simulation time: 08 hr 20 min 22 sec)
Heartbeat CPU 4 instructions: 520000005 cycles: 130011612 heartbeat IPC: 4 cumulative IPC: 4 (Simulation time: 08 hr 29 min 38 sec)
Heartbeat CPU 3 instructions: 520000013 cycles: 130011640 heartbeat IPC: 4 cumulative IPC: 4 (Simulation time: 08 hr 29 min 38 sec)
Heartbeat CPU 5 instructions: 520000009 cycles: 130011667 heartbeat IPC: 4 cumulative IPC: 4 (Simulation time: 08 hr 29 min 38 sec)
Heartbeat CPU 6 instructions: 520000004 cycles: 130011881 heartbeat IPC: 4 cumulative IPC: 4 (Simulation time: 08 hr 29 min 38 sec)
Heartbeat CPU 7 instructions: 520000010 cycles: 130012023 heartbeat IPC: 4 cumulative IPC: 4 (Simulation time: 08 hr 29 min 38 sec)
Heartbeat CPU 2 instructions: 520000008 cycles: 130014551 heartbeat IPC: 4 cumulative IPC: 4 (Simulation time: 08 hr 29 min 38 sec)
Simulation finished CPU 3 instructions: 100000001 cycles: 25000029 cumulative IPC: 4 (Simulation time: 08 hr 35 min 49 sec)
Simulation finished CPU 5 instructions: 100000000 cycles: 25000048 cumulative IPC: 4 (Simulation time: 08 hr 35 min 49 sec)
Simulation finished CPU 6 instructions: 100000001 cycles: 25000060 cumulative IPC: 4 (Simulation time: 08 hr 35 min 49 sec)
Simulation finished CPU 7 instructions: 100000003 cycles: 25000063 cumulative IPC: 4 (Simulation time: 08 hr 35 min 49 sec)
Simulation finished CPU 4 instructions: 100000003 cycles: 25000075 cumulative IPC: 4 (Simulation time: 08 hr 35 min 49 sec)
Simulation finished CPU 2 instructions: 100000002 cycles: 25000086 cumulative IPC: 4 (Simulation time: 08 hr 35 min 49 sec)
Heartbeat CPU 4 instructions: 530000005 cycles: 132511612 heartbeat IPC: 4 cumulative IPC: 4 (Simulation time: 08 hr 38 min 47 sec)
Heartbeat CPU 3 instructions: 530000013 cycles: 132511640 heartbeat IPC: 4 cumulative IPC: 4 (Simulation time: 08 hr 38 min 47 sec)
Heartbeat CPU 5 instructions: 530000009 cycles: 132511667 heartbeat IPC: 4 cumulative IPC: 4 (Simulation time: 08 hr 38 min 47 sec)
Heartbeat CPU 6 instructions: 530000004 cycles: 132511881 heartbeat IPC: 4 cumulative IPC: 4 (Simulation time: 08 hr 38 min 47 sec)
Heartbeat CPU 7 instructions: 530000010 cycles: 132512023 heartbeat IPC: 4 cumulative IPC: 4 (Simulation time: 08 hr 38 min 47 sec)
Heartbeat CPU 2 instructions: 530000008 cycles: 132514551 heartbeat IPC: 4 cumulative IPC: 4 (Simulation time: 08 hr 38 min 48 sec)
Heartbeat CPU 4 instructions: 540000005 cycles: 135011612 heartbeat IPC: 4 cumulative IPC: 4 (Simulation time: 08 hr 48 min 13 sec)
Heartbeat CPU 3 instructions: 540000013 cycles: 135011640 heartbeat IPC: 4 cumulative IPC: 4 (Simulation time: 08 hr 48 min 13 sec)
Heartbeat CPU 5 instructions: 540000009 cycles: 135011667 heartbeat IPC: 4 cumulative IPC: 4 (Simulation time: 08 hr 48 min 13 sec)
Heartbeat CPU 6 instructions: 540000004 cycles: 135011881 heartbeat IPC: 4 cumulative IPC: 4 (Simulation time: 08 hr 48 min 13 sec)
Heartbeat CPU 7 instructions: 540000010 cycles: 135012023 heartbeat IPC: 4 cumulative IPC: 4 (Simulation time: 08 hr 48 min 13 sec)
Heartbeat CPU 2 instructions: 540000008 cycles: 135014551 heartbeat IPC: 4 cumulative IPC: 4 (Simulation time: 08 hr 48 min 14 sec)
*** Reached end of trace: (2, "traces/ocean_8t/ocean2.champsimtrace")
*** Reached end of trace: (5, "traces/ocean_8t/ocean5.champsimtrace")
*** Reached end of trace: (4, "traces/ocean_8t/ocean4.champsimtrace")
*** Reached end of trace: (6, "traces/ocean_8t/ocean6.champsimtrace")
*** Reached end of trace: (3, "traces/ocean_8t/ocean3.champsimtrace")
*** Reached end of trace: (7, "traces/ocean_8t/ocean7.champsimtrace")
Heartbeat CPU 4 instructions: 550000006 cycles: 137511645 heartbeat IPC: 4 cumulative IPC: 4 (Simulation time: 08 hr 57 min 46 sec)
Heartbeat CPU 3 instructions: 550000016 cycles: 137511655 heartbeat IPC: 4 cumulative IPC: 4 (Simulation time: 08 hr 57 min 46 sec)
Heartbeat CPU 5 instructions: 550000009 cycles: 137511688 heartbeat IPC: 4 cumulative IPC: 4 (Simulation time: 08 hr 57 min 46 sec)
Heartbeat CPU 6 instructions: 550000005 cycles: 137511914 heartbeat IPC: 4 cumulative IPC: 4 (Simulation time: 08 hr 57 min 46 sec)
Heartbeat CPU 7 instructions: 550000012 cycles: 137512055 heartbeat IPC: 4 cumulative IPC: 4 (Simulation time: 08 hr 57 min 46 sec)
Heartbeat CPU 2 instructions: 550000009 cycles: 137514594 heartbeat IPC: 4 cumulative IPC: 4 (Simulation time: 08 hr 57 min 46 sec)
Heartbeat CPU 4 instructions: 560000006 cycles: 140011645 heartbeat IPC: 4 cumulative IPC: 4 (Simulation time: 09 hr 07 min 19 sec)
Heartbeat CPU 3 instructions: 560000016 cycles: 140011655 heartbeat IPC: 4 cumulative IPC: 4 (Simulation time: 09 hr 07 min 19 sec)
Heartbeat CPU 5 instructions: 560000009 cycles: 140011688 heartbeat IPC: 4 cumulative IPC: 4 (Simulation time: 09 hr 07 min 19 sec)
Heartbeat CPU 6 instructions: 560000005 cycles: 140011914 heartbeat IPC: 4 cumulative IPC: 4 (Simulation time: 09 hr 07 min 19 sec)
Heartbeat CPU 7 instructions: 560000012 cycles: 140012055 heartbeat IPC: 4 cumulative IPC: 4 (Simulation time: 09 hr 07 min 19 sec)
Heartbeat CPU 2 instructions: 560000009 cycles: 140014594 heartbeat IPC: 4 cumulative IPC: 4 (Simulation time: 09 hr 07 min 19 sec)
Heartbeat CPU 4 instructions: 570000006 cycles: 142511645 heartbeat IPC: 4 cumulative IPC: 4 (Simulation time: 09 hr 16 min 39 sec)
Heartbeat CPU 3 instructions: 570000016 cycles: 142511655 heartbeat IPC: 4 cumulative IPC: 4 (Simulation time: 09 hr 16 min 39 sec)
Heartbeat CPU 5 instructions: 570000009 cycles: 142511688 heartbeat IPC: 4 cumulative IPC: 4 (Simulation time: 09 hr 16 min 39 sec)
Heartbeat CPU 6 instructions: 570000005 cycles: 142511914 heartbeat IPC: 4 cumulative IPC: 4 (Simulation time: 09 hr 16 min 39 sec)
Heartbeat CPU 7 instructions: 570000012 cycles: 142512055 heartbeat IPC: 4 cumulative IPC: 4 (Simulation time: 09 hr 16 min 39 sec)
Heartbeat CPU 2 instructions: 570000009 cycles: 142514594 heartbeat IPC: 4 cumulative IPC: 4 (Simulation time: 09 hr 16 min 39 sec)
Heartbeat CPU 4 instructions: 580000006 cycles: 145011645 heartbeat IPC: 4 cumulative IPC: 4 (Simulation time: 09 hr 26 min 15 sec)
Heartbeat CPU 3 instructions: 580000016 cycles: 145011655 heartbeat IPC: 4 cumulative IPC: 4 (Simulation time: 09 hr 26 min 15 sec)
Heartbeat CPU 5 instructions: 580000009 cycles: 145011688 heartbeat IPC: 4 cumulative IPC: 4 (Simulation time: 09 hr 26 min 15 sec)
Heartbeat CPU 6 instructions: 580000005 cycles: 145011914 heartbeat IPC: 4 cumulative IPC: 4 (Simulation time: 09 hr 26 min 15 sec)
Heartbeat CPU 7 instructions: 580000012 cycles: 145012055 heartbeat IPC: 4 cumulative IPC: 4 (Simulation time: 09 hr 26 min 15 sec)
Heartbeat CPU 2 instructions: 580000009 cycles: 145014594 heartbeat IPC: 4 cumulative IPC: 4 (Simulation time: 09 hr 26 min 15 sec)
*** Reached end of trace: (2, "traces/ocean_8t/ocean2.champsimtrace")
*** Reached end of trace: (5, "traces/ocean_8t/ocean5.champsimtrace")
*** Reached end of trace: (4, "traces/ocean_8t/ocean4.champsimtrace")
*** Reached end of trace: (6, "traces/ocean_8t/ocean6.champsimtrace")
Heartbeat CPU 3 instructions: 590000016 cycles: 147511655 heartbeat IPC: 4 cumulative IPC: 4 (Simulation time: 09 hr 35 min 38 sec)
Heartbeat CPU 4 instructions: 590000007 cycles: 147511678 heartbeat IPC: 4 cumulative IPC: 4 (Simulation time: 09 hr 35 min 38 sec)
Heartbeat CPU 5 instructions: 590000009 cycles: 147511709 heartbeat IPC: 4 cumulative IPC: 4 (Simulation time: 09 hr 35 min 38 sec)
Heartbeat CPU 6 instructions: 590000006 cycles: 147511947 heartbeat IPC: 4 cumulative IPC: 4 (Simulation time: 09 hr 35 min 38 sec)
Heartbeat CPU 7 instructions: 590000012 cycles: 147512055 heartbeat IPC: 4 cumulative IPC: 4 (Simulation time: 09 hr 35 min 38 sec)
Heartbeat CPU 2 instructions: 590000010 cycles: 147514637 heartbeat IPC: 4 cumulative IPC: 4 (Simulation time: 09 hr 35 min 39 sec)
*** Reached end of trace: (3, "traces/ocean_8t/ocean3.champsimtrace")
*** Reached end of trace: (7, "traces/ocean_8t/ocean7.champsimtrace")
Heartbeat CPU 3 instructions: 600000019 cycles: 150011670 heartbeat IPC: 4 cumulative IPC: 4 (Simulation time: 09 hr 45 min 07 sec)
Heartbeat CPU 4 instructions: 600000007 cycles: 150011678 heartbeat IPC: 4 cumulative IPC: 4 (Simulation time: 09 hr 45 min 07 sec)
Heartbeat CPU 5 instructions: 600000009 cycles: 150011709 heartbeat IPC: 4 cumulative IPC: 4 (Simulation time: 09 hr 45 min 07 sec)
Heartbeat CPU 6 instructions: 600000006 cycles: 150011947 heartbeat IPC: 4 cumulative IPC: 4 (Simulation time: 09 hr 45 min 07 sec)
Heartbeat CPU 7 instructions: 600000014 cycles: 150012087 heartbeat IPC: 4 cumulative IPC: 4 (Simulation time: 09 hr 45 min 07 sec)
Heartbeat CPU 2 instructions: 600000010 cycles: 150014637 heartbeat IPC: 4 cumulative IPC: 4 (Simulation time: 09 hr 45 min 08 sec)
Heartbeat CPU 3 instructions: 610000019 cycles: 152511670 heartbeat IPC: 4 cumulative IPC: 4 (Simulation time: 09 hr 54 min 22 sec)
Heartbeat CPU 4 instructions: 610000007 cycles: 152511678 heartbeat IPC: 4 cumulative IPC: 4 (Simulation time: 09 hr 54 min 22 sec)
Heartbeat CPU 5 instructions: 610000009 cycles: 152511709 heartbeat IPC: 4 cumulative IPC: 4 (Simulation time: 09 hr 54 min 22 sec)
Heartbeat CPU 6 instructions: 610000006 cycles: 152511947 heartbeat IPC: 4 cumulative IPC: 4 (Simulation time: 09 hr 54 min 22 sec)
Heartbeat CPU 7 instructions: 610000014 cycles: 152512087 heartbeat IPC: 4 cumulative IPC: 4 (Simulation time: 09 hr 54 min 22 sec)
Heartbeat CPU 2 instructions: 610000010 cycles: 152514637 heartbeat IPC: 4 cumulative IPC: 4 (Simulation time: 09 hr 54 min 22 sec)
Heartbeat CPU 3 instructions: 620000019 cycles: 155011670 heartbeat IPC: 4 cumulative IPC: 4 (Simulation time: 10 hr 04 min 00 sec)
Heartbeat CPU 4 instructions: 620000007 cycles: 155011678 heartbeat IPC: 4 cumulative IPC: 4 (Simulation time: 10 hr 04 min 00 sec)
Heartbeat CPU 5 instructions: 620000009 cycles: 155011709 heartbeat IPC: 4 cumulative IPC: 4 (Simulation time: 10 hr 04 min 00 sec)
Heartbeat CPU 6 instructions: 620000006 cycles: 155011947 heartbeat IPC: 4 cumulative IPC: 4 (Simulation time: 10 hr 04 min 00 sec)
Heartbeat CPU 7 instructions: 620000014 cycles: 155012087 heartbeat IPC: 4 cumulative IPC: 4 (Simulation time: 10 hr 04 min 00 sec)
Heartbeat CPU 2 instructions: 620000010 cycles: 155014637 heartbeat IPC: 4 cumulative IPC: 4 (Simulation time: 10 hr 04 min 00 sec)
Heartbeat CPU 0 instructions: 60000011 cycles: 155371485 heartbeat IPC: 0.2055 cumulative IPC: 0.2055 (Simulation time: 10 hr 05 min 27 sec)
Heartbeat CPU 3 instructions: 630000019 cycles: 157511670 heartbeat IPC: 4 cumulative IPC: 4 (Simulation time: 10 hr 14 min 06 sec)
Heartbeat CPU 4 instructions: 630000007 cycles: 157511678 heartbeat IPC: 4 cumulative IPC: 4 (Simulation time: 10 hr 14 min 06 sec)
Heartbeat CPU 5 instructions: 630000009 cycles: 157511709 heartbeat IPC: 4 cumulative IPC: 4 (Simulation time: 10 hr 14 min 06 sec)
Heartbeat CPU 6 instructions: 630000006 cycles: 157511947 heartbeat IPC: 4 cumulative IPC: 4 (Simulation time: 10 hr 14 min 07 sec)
Heartbeat CPU 7 instructions: 630000014 cycles: 157512087 heartbeat IPC: 4 cumulative IPC: 4 (Simulation time: 10 hr 14 min 07 sec)
Heartbeat CPU 2 instructions: 630000010 cycles: 157514637 heartbeat IPC: 4 cumulative IPC: 4 (Simulation time: 10 hr 14 min 07 sec)
*** Reached end of trace: (2, "traces/ocean_8t/ocean2.champsimtrace")
*** Reached end of trace: (5, "traces/ocean_8t/ocean5.champsimtrace")
*** Reached end of trace: (4, "traces/ocean_8t/ocean4.champsimtrace")
*** Reached end of trace: (6, "traces/ocean_8t/ocean6.champsimtrace")
*** Reached end of trace: (3, "traces/ocean_8t/ocean3.champsimtrace")
*** Reached end of trace: (7, "traces/ocean_8t/ocean7.champsimtrace")
Heartbeat CPU 3 instructions: 640000022 cycles: 160011685 heartbeat IPC: 4 cumulative IPC: 4 (Simulation time: 10 hr 23 min 33 sec)
Heartbeat CPU 4 instructions: 640000008 cycles: 160011711 heartbeat IPC: 4 cumulative IPC: 4 (Simulation time: 10 hr 23 min 33 sec)
Heartbeat CPU 5 instructions: 640000009 cycles: 160011730 heartbeat IPC: 4 cumulative IPC: 4 (Simulation time: 10 hr 23 min 33 sec)
Heartbeat CPU 6 instructions: 640000007 cycles: 160011980 heartbeat IPC: 4 cumulative IPC: 4 (Simulation time: 10 hr 23 min 33 sec)
Heartbeat CPU 7 instructions: 640000016 cycles: 160012119 heartbeat IPC: 4 cumulative IPC: 4 (Simulation time: 10 hr 23 min 33 sec)
Heartbeat CPU 2 instructions: 640000011 cycles: 160014680 heartbeat IPC: 4 cumulative IPC: 4 (Simulation time: 10 hr 23 min 33 sec)
Heartbeat CPU 3 instructions: 650000022 cycles: 162511685 heartbeat IPC: 4 cumulative IPC: 4 (Simulation time: 10 hr 32 min 44 sec)
Heartbeat CPU 4 instructions: 650000008 cycles: 162511711 heartbeat IPC: 4 cumulative IPC: 4 (Simulation time: 10 hr 32 min 44 sec)
Heartbeat CPU 5 instructions: 650000009 cycles: 162511730 heartbeat IPC: 4 cumulative IPC: 4 (Simulation time: 10 hr 32 min 44 sec)
Heartbeat CPU 6 instructions: 650000007 cycles: 162511980 heartbeat IPC: 4 cumulative IPC: 4 (Simulation time: 10 hr 32 min 44 sec)
Heartbeat CPU 7 instructions: 650000016 cycles: 162512119 heartbeat IPC: 4 cumulative IPC: 4 (Simulation time: 10 hr 32 min 44 sec)
Heartbeat CPU 2 instructions: 650000011 cycles: 162514680 heartbeat IPC: 4 cumulative IPC: 4 (Simulation time: 10 hr 32 min 45 sec)
Heartbeat CPU 3 instructions: 660000022 cycles: 165011685 heartbeat IPC: 4 cumulative IPC: 4 (Simulation time: 10 hr 41 min 44 sec)
Heartbeat CPU 4 instructions: 660000008 cycles: 165011711 heartbeat IPC: 4 cumulative IPC: 4 (Simulation time: 10 hr 41 min 44 sec)
Heartbeat CPU 5 instructions: 660000009 cycles: 165011730 heartbeat IPC: 4 cumulative IPC: 4 (Simulation time: 10 hr 41 min 44 sec)
Heartbeat CPU 6 instructions: 660000007 cycles: 165011980 heartbeat IPC: 4 cumulative IPC: 4 (Simulation time: 10 hr 41 min 44 sec)
Heartbeat CPU 7 instructions: 660000016 cycles: 165012119 heartbeat IPC: 4 cumulative IPC: 4 (Simulation time: 10 hr 41 min 44 sec)
Heartbeat CPU 2 instructions: 660000011 cycles: 165014680 heartbeat IPC: 4 cumulative IPC: 4 (Simulation time: 10 hr 41 min 45 sec)
Heartbeat CPU 1 instructions: 260000030 cycles: 165504853 heartbeat IPC: 0.2269 cumulative IPC: 0.2444 (Simulation time: 10 hr 43 min 31 sec)
Heartbeat CPU 3 instructions: 670000022 cycles: 167511685 heartbeat IPC: 4 cumulative IPC: 4 (Simulation time: 10 hr 50 min 46 sec)
Heartbeat CPU 4 instructions: 670000008 cycles: 167511711 heartbeat IPC: 4 cumulative IPC: 4 (Simulation time: 10 hr 50 min 46 sec)
Heartbeat CPU 5 instructions: 670000009 cycles: 167511730 heartbeat IPC: 4 cumulative IPC: 4 (Simulation time: 10 hr 50 min 46 sec)
Heartbeat CPU 6 instructions: 670000007 cycles: 167511980 heartbeat IPC: 4 cumulative IPC: 4 (Simulation time: 10 hr 50 min 46 sec)
Heartbeat CPU 7 instructions: 670000016 cycles: 167512119 heartbeat IPC: 4 cumulative IPC: 4 (Simulation time: 10 hr 50 min 46 sec)
Heartbeat CPU 2 instructions: 670000011 cycles: 167514680 heartbeat IPC: 4 cumulative IPC: 4 (Simulation time: 10 hr 50 min 46 sec)
*** Reached end of trace: (2, "traces/ocean_8t/ocean2.champsimtrace")
*** Reached end of trace: (5, "traces/ocean_8t/ocean5.champsimtrace")
*** Reached end of trace: (4, "traces/ocean_8t/ocean4.champsimtrace")
*** Reached end of trace: (6, "traces/ocean_8t/ocean6.champsimtrace")
Heartbeat CPU 3 instructions: 680000022 cycles: 170011685 heartbeat IPC: 4 cumulative IPC: 4 (Simulation time: 10 hr 59 min 37 sec)
Heartbeat CPU 4 instructions: 680000009 cycles: 170011744 heartbeat IPC: 4 cumulative IPC: 4 (Simulation time: 10 hr 59 min 37 sec)
Heartbeat CPU 5 instructions: 680000009 cycles: 170011751 heartbeat IPC: 4 cumulative IPC: 4 (Simulation time: 10 hr 59 min 37 sec)
Heartbeat CPU 6 instructions: 680000008 cycles: 170012013 heartbeat IPC: 4 cumulative IPC: 4 (Simulation time: 10 hr 59 min 37 sec)
Heartbeat CPU 7 instructions: 680000016 cycles: 170012119 heartbeat IPC: 4 cumulative IPC: 4 (Simulation time: 10 hr 59 min 37 sec)
Heartbeat CPU 2 instructions: 680000012 cycles: 170014723 heartbeat IPC: 4 cumulative IPC: 4 (Simulation time: 10 hr 59 min 38 sec)
*** Reached end of trace: (3, "traces/ocean_8t/ocean3.champsimtrace")
*** Reached end of trace: (7, "traces/ocean_8t/ocean7.champsimtrace")
Heartbeat CPU 3 instructions: 690000025 cycles: 172511700 heartbeat IPC: 4 cumulative IPC: 4 (Simulation time: 11 hr 08 min 28 sec)
Heartbeat CPU 4 instructions: 690000009 cycles: 172511744 heartbeat IPC: 4 cumulative IPC: 4 (Simulation time: 11 hr 08 min 28 sec)
Heartbeat CPU 5 instructions: 690000009 cycles: 172511751 heartbeat IPC: 4 cumulative IPC: 4 (Simulation time: 11 hr 08 min 28 sec)
Heartbeat CPU 6 instructions: 690000008 cycles: 172512013 heartbeat IPC: 4 cumulative IPC: 4 (Simulation time: 11 hr 08 min 28 sec)
Heartbeat CPU 7 instructions: 690000018 cycles: 172512151 heartbeat IPC: 4 cumulative IPC: 4 (Simulation time: 11 hr 08 min 28 sec)
Heartbeat CPU 2 instructions: 690000012 cycles: 172514723 heartbeat IPC: 4 cumulative IPC: 4 (Simulation time: 11 hr 08 min 29 sec)
Heartbeat CPU 3 instructions: 700000025 cycles: 175011700 heartbeat IPC: 4 cumulative IPC: 4 (Simulation time: 11 hr 17 min 15 sec)
Heartbeat CPU 4 instructions: 700000009 cycles: 175011744 heartbeat IPC: 4 cumulative IPC: 4 (Simulation time: 11 hr 17 min 15 sec)
Heartbeat CPU 5 instructions: 700000009 cycles: 175011751 heartbeat IPC: 4 cumulative IPC: 4 (Simulation time: 11 hr 17 min 15 sec)
Heartbeat CPU 6 instructions: 700000008 cycles: 175012013 heartbeat IPC: 4 cumulative IPC: 4 (Simulation time: 11 hr 17 min 16 sec)
Heartbeat CPU 7 instructions: 700000018 cycles: 175012151 heartbeat IPC: 4 cumulative IPC: 4 (Simulation time: 11 hr 17 min 16 sec)
Heartbeat CPU 2 instructions: 700000012 cycles: 175014723 heartbeat IPC: 4 cumulative IPC: 4 (Simulation time: 11 hr 17 min 16 sec)
Heartbeat CPU 3 instructions: 710000025 cycles: 177511700 heartbeat IPC: 4 cumulative IPC: 4 (Simulation time: 11 hr 26 min 12 sec)
Heartbeat CPU 4 instructions: 710000009 cycles: 177511744 heartbeat IPC: 4 cumulative IPC: 4 (Simulation time: 11 hr 26 min 12 sec)
Heartbeat CPU 5 instructions: 710000009 cycles: 177511751 heartbeat IPC: 4 cumulative IPC: 4 (Simulation time: 11 hr 26 min 12 sec)
Heartbeat CPU 6 instructions: 710000008 cycles: 177512013 heartbeat IPC: 4 cumulative IPC: 4 (Simulation time: 11 hr 26 min 13 sec)
Heartbeat CPU 7 instructions: 710000018 cycles: 177512151 heartbeat IPC: 4 cumulative IPC: 4 (Simulation time: 11 hr 26 min 13 sec)
Heartbeat CPU 2 instructions: 710000012 cycles: 177514723 heartbeat IPC: 4 cumulative IPC: 4 (Simulation time: 11 hr 26 min 13 sec)
Heartbeat CPU 3 instructions: 720000025 cycles: 180011700 heartbeat IPC: 4 cumulative IPC: 4 (Simulation time: 11 hr 35 min 06 sec)
Heartbeat CPU 4 instructions: 720000009 cycles: 180011744 heartbeat IPC: 4 cumulative IPC: 4 (Simulation time: 11 hr 35 min 06 sec)
Heartbeat CPU 5 instructions: 720000009 cycles: 180011751 heartbeat IPC: 4 cumulative IPC: 4 (Simulation time: 11 hr 35 min 06 sec)
Heartbeat CPU 6 instructions: 720000008 cycles: 180012013 heartbeat IPC: 4 cumulative IPC: 4 (Simulation time: 11 hr 35 min 06 sec)
Heartbeat CPU 7 instructions: 720000018 cycles: 180012151 heartbeat IPC: 4 cumulative IPC: 4 (Simulation time: 11 hr 35 min 06 sec)
Heartbeat CPU 2 instructions: 720000012 cycles: 180014723 heartbeat IPC: 4 cumulative IPC: 4 (Simulation time: 11 hr 35 min 07 sec)
*** Reached end of trace: (2, "traces/ocean_8t/ocean2.champsimtrace")
*** Reached end of trace: (5, "traces/ocean_8t/ocean5.champsimtrace")
*** Reached end of trace: (4, "traces/ocean_8t/ocean4.champsimtrace")
*** Reached end of trace: (6, "traces/ocean_8t/ocean6.champsimtrace")
*** Reached end of trace: (3, "traces/ocean_8t/ocean3.champsimtrace")
*** Reached end of trace: (7, "traces/ocean_8t/ocean7.champsimtrace")
Heartbeat CPU 3 instructions: 730000028 cycles: 182511715 heartbeat IPC: 4 cumulative IPC: 4 (Simulation time: 11 hr 44 min 02 sec)
Heartbeat CPU 5 instructions: 730000009 cycles: 182511772 heartbeat IPC: 4 cumulative IPC: 4 (Simulation time: 11 hr 44 min 02 sec)
Heartbeat CPU 4 instructions: 730000010 cycles: 182511777 heartbeat IPC: 4 cumulative IPC: 4 (Simulation time: 11 hr 44 min 02 sec)
Heartbeat CPU 6 instructions: 730000009 cycles: 182512046 heartbeat IPC: 4 cumulative IPC: 4 (Simulation time: 11 hr 44 min 02 sec)
Heartbeat CPU 7 instructions: 730000020 cycles: 182512183 heartbeat IPC: 4 cumulative IPC: 4 (Simulation time: 11 hr 44 min 02 sec)
Heartbeat CPU 2 instructions: 730000013 cycles: 182514766 heartbeat IPC: 4 cumulative IPC: 4 (Simulation time: 11 hr 44 min 02 sec)
Heartbeat CPU 3 instructions: 740000028 cycles: 185011715 heartbeat IPC: 4 cumulative IPC: 4 (Simulation time: 11 hr 53 min 03 sec)
Heartbeat CPU 5 instructions: 740000009 cycles: 185011772 heartbeat IPC: 4 cumulative IPC: 4 (Simulation time: 11 hr 53 min 03 sec)
Heartbeat CPU 4 instructions: 740000010 cycles: 185011777 heartbeat IPC: 4 cumulative IPC: 4 (Simulation time: 11 hr 53 min 03 sec)
Heartbeat CPU 6 instructions: 740000009 cycles: 185012046 heartbeat IPC: 4 cumulative IPC: 4 (Simulation time: 11 hr 53 min 03 sec)
Heartbeat CPU 7 instructions: 740000020 cycles: 185012183 heartbeat IPC: 4 cumulative IPC: 4 (Simulation time: 11 hr 53 min 03 sec)
Heartbeat CPU 2 instructions: 740000013 cycles: 185014766 heartbeat IPC: 4 cumulative IPC: 4 (Simulation time: 11 hr 53 min 04 sec)
Heartbeat CPU 3 instructions: 750000028 cycles: 187511715 heartbeat IPC: 4 cumulative IPC: 4 (Simulation time: 12 hr 02 min 04 sec)
Heartbeat CPU 5 instructions: 750000009 cycles: 187511772 heartbeat IPC: 4 cumulative IPC: 4 (Simulation time: 12 hr 02 min 04 sec)
Heartbeat CPU 4 instructions: 750000010 cycles: 187511777 heartbeat IPC: 4 cumulative IPC: 4 (Simulation time: 12 hr 02 min 04 sec)
Heartbeat CPU 6 instructions: 750000009 cycles: 187512046 heartbeat IPC: 4 cumulative IPC: 4 (Simulation time: 12 hr 02 min 04 sec)
Heartbeat CPU 7 instructions: 750000020 cycles: 187512183 heartbeat IPC: 4 cumulative IPC: 4 (Simulation time: 12 hr 02 min 04 sec)
Heartbeat CPU 2 instructions: 750000013 cycles: 187514766 heartbeat IPC: 4 cumulative IPC: 4 (Simulation time: 12 hr 02 min 05 sec)
Heartbeat CPU 3 instructions: 760000028 cycles: 190011715 heartbeat IPC: 4 cumulative IPC: 4 (Simulation time: 12 hr 11 min 12 sec)
Heartbeat CPU 5 instructions: 760000009 cycles: 190011772 heartbeat IPC: 4 cumulative IPC: 4 (Simulation time: 12 hr 11 min 12 sec)
Heartbeat CPU 4 instructions: 760000010 cycles: 190011777 heartbeat IPC: 4 cumulative IPC: 4 (Simulation time: 12 hr 11 min 12 sec)
Heartbeat CPU 6 instructions: 760000009 cycles: 190012046 heartbeat IPC: 4 cumulative IPC: 4 (Simulation time: 12 hr 11 min 12 sec)
Heartbeat CPU 7 instructions: 760000020 cycles: 190012183 heartbeat IPC: 4 cumulative IPC: 4 (Simulation time: 12 hr 11 min 12 sec)
Heartbeat CPU 2 instructions: 760000013 cycles: 190014766 heartbeat IPC: 4 cumulative IPC: 4 (Simulation time: 12 hr 11 min 13 sec)
*** Reached end of trace: (2, "traces/ocean_8t/ocean2.champsimtrace")
*** Reached end of trace: (5, "traces/ocean_8t/ocean5.champsimtrace")
*** Reached end of trace: (4, "traces/ocean_8t/ocean4.champsimtrace")
*** Reached end of trace: (6, "traces/ocean_8t/ocean6.champsimtrace")
Heartbeat CPU 3 instructions: 770000028 cycles: 192511715 heartbeat IPC: 4 cumulative IPC: 4 (Simulation time: 12 hr 20 min 22 sec)
Heartbeat CPU 5 instructions: 770000009 cycles: 192511793 heartbeat IPC: 4 cumulative IPC: 4 (Simulation time: 12 hr 20 min 22 sec)
Heartbeat CPU 4 instructions: 770000011 cycles: 192511810 heartbeat IPC: 4 cumulative IPC: 4 (Simulation time: 12 hr 20 min 22 sec)
Heartbeat CPU 6 instructions: 770000010 cycles: 192512079 heartbeat IPC: 4 cumulative IPC: 4 (Simulation time: 12 hr 20 min 22 sec)
Heartbeat CPU 7 instructions: 770000020 cycles: 192512183 heartbeat IPC: 4 cumulative IPC: 4 (Simulation time: 12 hr 20 min 22 sec)
Heartbeat CPU 2 instructions: 770000014 cycles: 192514809 heartbeat IPC: 4 cumulative IPC: 4 (Simulation time: 12 hr 20 min 23 sec)
*** Reached end of trace: (3, "traces/ocean_8t/ocean3.champsimtrace")
*** Reached end of trace: (7, "traces/ocean_8t/ocean7.champsimtrace")
Heartbeat CPU 3 instructions: 780000031 cycles: 195011730 heartbeat IPC: 4 cumulative IPC: 4 (Simulation time: 12 hr 29 min 42 sec)
Heartbeat CPU 5 instructions: 780000009 cycles: 195011793 heartbeat IPC: 4 cumulative IPC: 4 (Simulation time: 12 hr 29 min 42 sec)
Heartbeat CPU 4 instructions: 780000011 cycles: 195011810 heartbeat IPC: 4 cumulative IPC: 4 (Simulation time: 12 hr 29 min 42 sec)
Heartbeat CPU 6 instructions: 780000010 cycles: 195012079 heartbeat IPC: 4 cumulative IPC: 4 (Simulation time: 12 hr 29 min 42 sec)
Heartbeat CPU 7 instructions: 780000022 cycles: 195012215 heartbeat IPC: 4 cumulative IPC: 4 (Simulation time: 12 hr 29 min 42 sec)
Heartbeat CPU 2 instructions: 780000014 cycles: 195014809 heartbeat IPC: 4 cumulative IPC: 4 (Simulation time: 12 hr 29 min 42 sec)
Heartbeat CPU 3 instructions: 790000031 cycles: 197511730 heartbeat IPC: 4 cumulative IPC: 4 (Simulation time: 12 hr 38 min 57 sec)
Heartbeat CPU 5 instructions: 790000009 cycles: 197511793 heartbeat IPC: 4 cumulative IPC: 4 (Simulation time: 12 hr 38 min 57 sec)
Heartbeat CPU 4 instructions: 790000011 cycles: 197511810 heartbeat IPC: 4 cumulative IPC: 4 (Simulation time: 12 hr 38 min 57 sec)
Heartbeat CPU 6 instructions: 790000010 cycles: 197512079 heartbeat IPC: 4 cumulative IPC: 4 (Simulation time: 12 hr 38 min 57 sec)
Heartbeat CPU 7 instructions: 790000022 cycles: 197512215 heartbeat IPC: 4 cumulative IPC: 4 (Simulation time: 12 hr 38 min 57 sec)
Heartbeat CPU 2 instructions: 790000014 cycles: 197514809 heartbeat IPC: 4 cumulative IPC: 4 (Simulation time: 12 hr 38 min 58 sec)
Heartbeat CPU 3 instructions: 800000031 cycles: 200011730 heartbeat IPC: 4 cumulative IPC: 4 (Simulation time: 12 hr 48 min 21 sec)
Heartbeat CPU 5 instructions: 800000009 cycles: 200011793 heartbeat IPC: 4 cumulative IPC: 4 (Simulation time: 12 hr 48 min 21 sec)
Heartbeat CPU 4 instructions: 800000011 cycles: 200011810 heartbeat IPC: 4 cumulative IPC: 4 (Simulation time: 12 hr 48 min 21 sec)
Heartbeat CPU 6 instructions: 800000010 cycles: 200012079 heartbeat IPC: 4 cumulative IPC: 4 (Simulation time: 12 hr 48 min 21 sec)
Heartbeat CPU 7 instructions: 800000022 cycles: 200012215 heartbeat IPC: 4 cumulative IPC: 4 (Simulation time: 12 hr 48 min 21 sec)
Heartbeat CPU 2 instructions: 800000014 cycles: 200014809 heartbeat IPC: 4 cumulative IPC: 4 (Simulation time: 12 hr 48 min 21 sec)
Heartbeat CPU 3 instructions: 810000031 cycles: 202511730 heartbeat IPC: 4 cumulative IPC: 4 (Simulation time: 12 hr 57 min 39 sec)
Heartbeat CPU 5 instructions: 810000009 cycles: 202511793 heartbeat IPC: 4 cumulative IPC: 4 (Simulation time: 12 hr 57 min 39 sec)
Heartbeat CPU 4 instructions: 810000011 cycles: 202511810 heartbeat IPC: 4 cumulative IPC: 4 (Simulation time: 12 hr 57 min 39 sec)
Heartbeat CPU 6 instructions: 810000010 cycles: 202512079 heartbeat IPC: 4 cumulative IPC: 4 (Simulation time: 12 hr 57 min 39 sec)
Heartbeat CPU 7 instructions: 810000022 cycles: 202512215 heartbeat IPC: 4 cumulative IPC: 4 (Simulation time: 12 hr 57 min 39 sec)
Heartbeat CPU 2 instructions: 810000014 cycles: 202514809 heartbeat IPC: 4 cumulative IPC: 4 (Simulation time: 12 hr 57 min 40 sec)
*** Reached end of trace: (2, "traces/ocean_8t/ocean2.champsimtrace")
*** Reached end of trace: (5, "traces/ocean_8t/ocean5.champsimtrace")
[...]
cpu4->cpu4_ITLB RFO          ACCESS:          0 HIT:          0 MISS:          0 MSHR_MERGE:          0
cpu4->cpu4_ITLB PREFETCH     ACCESS:          0 HIT:          0 MISS:          0 MSHR_MERGE:          0
cpu4->cpu4_ITLB WRITE        ACCESS:          0 HIT:          0 MISS:          0 MSHR_MERGE:          0
cpu4->cpu4_ITLB TRANSLATION  ACCESS:          0 HIT:          0 MISS:          0 MSHR_MERGE:          0
cpu4->cpu4_ITLB PREFETCH REQUESTED:          0 ISSUED:          0 USEFUL:          0 USELESS:          0
cpu4->cpu4_ITLB AVERAGE MISS LATENCY: 3.859 cycles
cpu4_ITLB COHERENCE INVALIDATIONS:          0
cpu4_ITLB COHERENCE WRITE-HIT OTHER-SHARER EVENTS:          0
cpu4_DTLB COHERENCE INVALIDATIONS:          0
cpu4_DTLB COHERENCE WRITE-HIT OTHER-SHARER EVENTS:          0
cpu3->cpu3_STLB TOTAL        ACCESS:        848 HIT:        848 MISS:          0 MSHR_MERGE:          0
cpu3->cpu3_STLB LOAD         ACCESS:        848 HIT:        848 MISS:          0 MSHR_MERGE:          0
cpu3->cpu3_STLB RFO          ACCESS:          0 HIT:          0 MISS:          0 MSHR_MERGE:          0
cpu3->cpu3_STLB PREFETCH     ACCESS:          0 HIT:          0 MISS:          0 MSHR_MERGE:          0
cpu3->cpu3_STLB WRITE        ACCESS:          0 HIT:          0 MISS:          0 MSHR_MERGE:          0
cpu3->cpu3_STLB TRANSLATION  ACCESS:          0 HIT:          0 MISS:          0 MSHR_MERGE:          0
cpu3->cpu3_STLB PREFETCH REQUESTED:          0 ISSUED:          0 USEFUL:          0 USELESS:          0
cpu3->cpu3_STLB AVERAGE MISS LATENCY: - cycles
cpu3_STLB COHERENCE INVALIDATIONS:          0
cpu3_STLB COHERENCE WRITE-HIT OTHER-SHARER EVENTS:          0
cpu3->cpu3_L2C TOTAL        ACCESS:      83552 HIT:      83552 MISS:          0 MSHR_MERGE:          0
cpu3->cpu3_L2C LOAD         ACCESS:      83552 HIT:      83552 MISS:          0 MSHR_MERGE:          0
cpu3->cpu3_L2C RFO          ACCESS:          0 HIT:          0 MISS:          0 MSHR_MERGE:          0
cpu3->cpu3_L2C PREFETCH     ACCESS:          0 HIT:          0 MISS:          0 MSHR_MERGE:          0
cpu3->cpu3_L2C WRITE        ACCESS:          0 HIT:          0 MISS:          0 MSHR_MERGE:          0
cpu3->cpu3_L2C TRANSLATION  ACCESS:          0 HIT:          0 MISS:          0 MSHR_MERGE:          0
cpu3->cpu3_L2C PREFETCH REQUESTED:          0 ISSUED:          0 USEFUL:          0 USELESS:          0
cpu3->cpu3_L2C AVERAGE MISS LATENCY: - cycles
cpu3_L2C COHERENCE INVALIDATIONS:          0
cpu3_L2C COHERENCE WRITE-HIT OTHER-SHARER EVENTS:          0
cpu3->cpu3_L1I TOTAL        ACCESS:  381008434 HIT:  380883125 MISS:     125309 MSHR_MERGE:      41757
cpu3->cpu3_L1I LOAD         ACCESS:  381008434 HIT:  380883125 MISS:     125309 MSHR_MERGE:      41757
cpu3->cpu3_L1I RFO          ACCESS:          0 HIT:          0 MISS:          0 MSHR_MERGE:          0
cpu3->cpu3_L1I PREFETCH     ACCESS:          0 HIT:          0 MISS:          0 MSHR_MERGE:          0
cpu3->cpu3_L1I WRITE        ACCESS:          0 HIT:          0 MISS:          0 MSHR_MERGE:          0
cpu3->cpu3_L1I TRANSLATION  ACCESS:          0 HIT:          0 MISS:          0 MSHR_MERGE:          0
cpu3->cpu3_L1I PREFETCH REQUESTED:          0 ISSUED:          0 USEFUL:          0 USELESS:          0
cpu3->cpu3_L1I AVERAGE MISS LATENCY: 7 cycles
cpu3_L1I COHERENCE INVALIDATIONS:          0
cpu3_L1I COHERENCE WRITE-HIT OTHER-SHARER EVENTS:          0
cpu3_L1D COHERENCE INVALIDATIONS:          0
cpu3_L1D COHERENCE WRITE-HIT OTHER-SHARER EVENTS:          0
cpu3->cpu3_ITLB TOTAL        ACCESS:  301724928 HIT:  301723338 MISS:       1590 MSHR_MERGE:        742
cpu3->cpu3_ITLB LOAD         ACCESS:  301724928 HIT:  301723338 MISS:       1590 MSHR_MERGE:        742
cpu3->cpu3_ITLB RFO          ACCESS:          0 HIT:          0 MISS:          0 MSHR_MERGE:          0
cpu3->cpu3_ITLB PREFETCH     ACCESS:          0 HIT:          0 MISS:          0 MSHR_MERGE:          0
cpu3->cpu3_ITLB WRITE        ACCESS:          0 HIT:          0 MISS:          0 MSHR_MERGE:          0
cpu3->cpu3_ITLB TRANSLATION  ACCESS:          0 HIT:          0 MISS:          0 MSHR_MERGE:          0
cpu3->cpu3_ITLB PREFETCH REQUESTED:          0 ISSUED:          0 USEFUL:          0 USELESS:          0
cpu3->cpu3_ITLB AVERAGE MISS LATENCY: 4 cycles
cpu3_ITLB COHERENCE INVALIDATIONS:          0
cpu3_ITLB COHERENCE WRITE-HIT OTHER-SHARER EVENTS:          0
cpu3_DTLB COHERENCE INVALIDATIONS:          0
cpu3_DTLB COHERENCE WRITE-HIT OTHER-SHARER EVENTS:          0
cpu2->cpu2_STLB TOTAL        ACCESS:        863 HIT:        863 MISS:          0 MSHR_MERGE:          0
cpu2->cpu2_STLB LOAD         ACCESS:        863 HIT:        863 MISS:          0 MSHR_MERGE:          0
cpu2->cpu2_STLB RFO          ACCESS:          0 HIT:          0 MISS:          0 MSHR_MERGE:          0
cpu2->cpu2_STLB PREFETCH     ACCESS:          0 HIT:          0 MISS:          0 MSHR_MERGE:          0
cpu2->cpu2_STLB WRITE        ACCESS:          0 HIT:          0 MISS:          0 MSHR_MERGE:          0
cpu2->cpu2_STLB TRANSLATION  ACCESS:          0 HIT:          0 MISS:          0 MSHR_MERGE:          0
cpu2->cpu2_STLB PREFETCH REQUESTED:          0 ISSUED:          0 USEFUL:          0 USELESS:          0
cpu2->cpu2_STLB AVERAGE MISS LATENCY: - cycles
cpu2_STLB COHERENCE INVALIDATIONS:          0
cpu2_STLB COHERENCE WRITE-HIT OTHER-SHARER EVENTS:          0
cpu2->cpu2_L2C TOTAL        ACCESS:      88928 HIT:      88928 MISS:          0 MSHR_MERGE:          0
cpu2->cpu2_L2C LOAD         ACCESS:      88928 HIT:      88928 MISS:          0 MSHR_MERGE:          0
cpu2->cpu2_L2C RFO          ACCESS:          0 HIT:          0 MISS:          0 MSHR_MERGE:          0
cpu2->cpu2_L2C PREFETCH     ACCESS:          0 HIT:          0 MISS:          0 MSHR_MERGE:          0
cpu2->cpu2_L2C WRITE        ACCESS:          0 HIT:          0 MISS:          0 MSHR_MERGE:          0
cpu2->cpu2_L2C TRANSLATION  ACCESS:          0 HIT:          0 MISS:          0 MSHR_MERGE:          0
cpu2->cpu2_L2C PREFETCH REQUESTED:          0 ISSUED:          0 USEFUL:          0 USELESS:          0
cpu2->cpu2_L2C AVERAGE MISS LATENCY: - cycles
cpu2_L2C COHERENCE INVALIDATIONS:          0
cpu2_L2C COHERENCE WRITE-HIT OTHER-SHARER EVENTS:          0
cpu2->cpu2_L1I TOTAL        ACCESS:  348059749 HIT:  347932038 MISS:     127711 MSHR_MERGE:      38783
cpu2->cpu2_L1I LOAD         ACCESS:  348059749 HIT:  347932038 MISS:     127711 MSHR_MERGE:      38783
cpu2->cpu2_L1I RFO          ACCESS:          0 HIT:          0 MISS:          0 MSHR_MERGE:          0
cpu2->cpu2_L1I PREFETCH     ACCESS:          0 HIT:          0 MISS:          0 MSHR_MERGE:          0
cpu2->cpu2_L1I WRITE        ACCESS:          0 HIT:          0 MISS:          0 MSHR_MERGE:          0
cpu2->cpu2_L1I TRANSLATION  ACCESS:          0 HIT:          0 MISS:          0 MSHR_MERGE:          0
cpu2->cpu2_L1I PREFETCH REQUESTED:          0 ISSUED:          0 USEFUL:          0 USELESS:          0
cpu2->cpu2_L1I AVERAGE MISS LATENCY: 7 cycles
cpu2_L1I COHERENCE INVALIDATIONS:          0
cpu2_L1I COHERENCE WRITE-HIT OTHER-SHARER EVENTS:          0
cpu2_L1D COHERENCE INVALIDATIONS:          0
cpu2_L1D COHERENCE WRITE-HIT OTHER-SHARER EVENTS:          0
cpu2->cpu2_ITLB TOTAL        ACCESS:  279947335 HIT:  279945878 MISS:       1457 MSHR_MERGE:        594
cpu2->cpu2_ITLB LOAD         ACCESS:  279947335 HIT:  279945878 MISS:       1457 MSHR_MERGE:        594
cpu2->cpu2_ITLB RFO          ACCESS:          0 HIT:          0 MISS:          0 MSHR_MERGE:          0
cpu2->cpu2_ITLB PREFETCH     ACCESS:          0 HIT:          0 MISS:          0 MSHR_MERGE:          0
cpu2->cpu2_ITLB WRITE        ACCESS:          0 HIT:          0 MISS:          0 MSHR_MERGE:          0
cpu2->cpu2_ITLB TRANSLATION  ACCESS:          0 HIT:          0 MISS:          0 MSHR_MERGE:          0
cpu2->cpu2_ITLB PREFETCH REQUESTED:          0 ISSUED:          0 USEFUL:          0 USELESS:          0
cpu2->cpu2_ITLB AVERAGE MISS LATENCY: 4 cycles
cpu2_ITLB COHERENCE INVALIDATIONS:          0
cpu2_ITLB COHERENCE WRITE-HIT OTHER-SHARER EVENTS:          0
cpu2_DTLB COHERENCE INVALIDATIONS:          0
cpu2_DTLB COHERENCE WRITE-HIT OTHER-SHARER EVENTS:          0
cpu1->cpu1_STLB TOTAL        ACCESS:     891555 HIT:     860880 MISS:      30675 MSHR_MERGE:          0
cpu1->cpu1_STLB LOAD         ACCESS:     891555 HIT:     860880 MISS:      30675 MSHR_MERGE:          0
cpu1->cpu1_STLB RFO          ACCESS:          0 HIT:          0 MISS:          0 MSHR_MERGE:          0
cpu1->cpu1_STLB PREFETCH     ACCESS:          0 HIT:          0 MISS:          0 MSHR_MERGE:          0
cpu1->cpu1_STLB WRITE        ACCESS:          0 HIT:          0 MISS:          0 MSHR_MERGE:          0
cpu1->cpu1_STLB TRANSLATION  ACCESS:          0 HIT:          0 MISS:          0 MSHR_MERGE:          0
cpu1->cpu1_STLB PREFETCH REQUESTED:          0 ISSUED:          0 USEFUL:          0 USELESS:          0
cpu1->cpu1_STLB AVERAGE MISS LATENCY: 509.8 cycles
cpu1_STLB COHERENCE INVALIDATIONS:          0
cpu1_STLB COHERENCE WRITE-HIT OTHER-SHARER EVENTS:          0
cpu1->cpu1_L2C TOTAL        ACCESS:   12722362 HIT:    5150976 MISS:    7571386 MSHR_MERGE:          0
cpu1->cpu1_L2C LOAD         ACCESS:   12674743 HIT:    5150976 MISS:    7523767 MSHR_MERGE:          0
cpu1->cpu1_L2C RFO          ACCESS:          0 HIT:          0 MISS:          0 MSHR_MERGE:          0
cpu1->cpu1_L2C PREFETCH     ACCESS:          0 HIT:          0 MISS:          0 MSHR_MERGE:          0
cpu1->cpu1_L2C WRITE        ACCESS:          0 HIT:          0 MISS:          0 MSHR_MERGE:          0
cpu1->cpu1_L2C TRANSLATION  ACCESS:      47619 HIT:          0 MISS:      47619 MSHR_MERGE:          0
cpu1->cpu1_L2C PREFETCH REQUESTED:          0 ISSUED:          0 USEFUL:          0 USELESS:          0
cpu1->cpu1_L2C AVERAGE MISS LATENCY: 227.7 cycles
cpu1_L2C COHERENCE INVALIDATIONS:          0
cpu1_L2C COHERENCE WRITE-HIT OTHER-SHARER EVENTS:          0
cpu1->cpu1_L1I TOTAL        ACCESS:   47277911 HIT:   32776111 MISS:   14501800 MSHR_MERGE:    1827057
cpu1->cpu1_L1I LOAD         ACCESS:   47277911 HIT:   32776111 MISS:   14501800 MSHR_MERGE:    1827057
cpu1->cpu1_L1I RFO          ACCESS:          0 HIT:          0 MISS:          0 MSHR_MERGE:          0
cpu1->cpu1_L1I PREFETCH     ACCESS:          0 HIT:          0 MISS:          0 MSHR_MERGE:          0
cpu1->cpu1_L1I WRITE        ACCESS:          0 HIT:          0 MISS:          0 MSHR_MERGE:          0
cpu1->cpu1_L1I TRANSLATION  ACCESS:          0 HIT:          0 MISS:          0 MSHR_MERGE:          0
cpu1->cpu1_L1I PREFETCH REQUESTED:          0 ISSUED:          0 USEFUL:          0 USELESS:          0
cpu1->cpu1_L1I AVERAGE MISS LATENCY: 142.4 cycles
cpu1_L1I COHERENCE INVALIDATIONS:          0
cpu1_L1I COHERENCE WRITE-HIT OTHER-SHARER EVENTS:          0
cpu1->cpu1_L1D TOTAL        ACCESS:      61361 HIT:      13742 MISS:      47619 MSHR_MERGE:          0
cpu1->cpu1_L1D LOAD         ACCESS:          0 HIT:          0 MISS:          0 MSHR_MERGE:          0
cpu1->cpu1_L1D RFO          ACCESS:          0 HIT:          0 MISS:          0 MSHR_MERGE:          0
cpu1->cpu1_L1D PREFETCH     ACCESS:          0 HIT:          0 MISS:          0 MSHR_MERGE:          0
cpu1->cpu1_L1D WRITE        ACCESS:          0 HIT:          0 MISS:          0 MSHR_MERGE:          0
cpu1->cpu1_L1D TRANSLATION  ACCESS:      61361 HIT:      13742 MISS:      47619 MSHR_MERGE:          0
cpu1->cpu1_L1D PREFETCH REQUESTED:          0 ISSUED:          0 USEFUL:          0 USELESS:          0
cpu1->cpu1_L1D AVERAGE MISS LATENCY: 320.9 cycles
cpu1_L1D COHERENCE INVALIDATIONS:          0
cpu1_L1D COHERENCE WRITE-HIT OTHER-SHARER EVENTS:          0
cpu1->cpu1_ITLB TOTAL        ACCESS:   46451128 HIT:   45521241 MISS:     929887 MSHR_MERGE:      38332
cpu1->cpu1_ITLB LOAD         ACCESS:   46451128 HIT:   45521241 MISS:     929887 MSHR_MERGE:      38332
cpu1->cpu1_ITLB RFO          ACCESS:          0 HIT:          0 MISS:          0 MSHR_MERGE:          0
cpu1->cpu1_ITLB PREFETCH     ACCESS:          0 HIT:          0 MISS:          0 MSHR_MERGE:          0
cpu1->cpu1_ITLB WRITE        ACCESS:          0 HIT:          0 MISS:          0 MSHR_MERGE:          0
cpu1->cpu1_ITLB TRANSLATION  ACCESS:          0 HIT:          0 MISS:          0 MSHR_MERGE:          0
cpu1->cpu1_ITLB PREFETCH REQUESTED:          0 ISSUED:          0 USEFUL:          0 USELESS:          0
cpu1->cpu1_ITLB AVERAGE MISS LATENCY: 21.57 cycles
cpu1_ITLB COHERENCE INVALIDATIONS:          0
cpu1_ITLB COHERENCE WRITE-HIT OTHER-SHARER EVENTS:          0
cpu1_DTLB COHERENCE INVALIDATIONS:          0
cpu1_DTLB COHERENCE WRITE-HIT OTHER-SHARER EVENTS:          0
cpu0->cpu0_STLB TOTAL        ACCESS:    4692158 HIT:    4544688 MISS:     147470 MSHR_MERGE:          0
cpu0->cpu0_STLB LOAD         ACCESS:    4692158 HIT:    4544688 MISS:     147470 MSHR_MERGE:          0
cpu0->cpu0_STLB RFO          ACCESS:          0 HIT:          0 MISS:          0 MSHR_MERGE:          0
cpu0->cpu0_STLB PREFETCH     ACCESS:          0 HIT:          0 MISS:          0 MSHR_MERGE:          0
cpu0->cpu0_STLB WRITE        ACCESS:          0 HIT:          0 MISS:          0 MSHR_MERGE:          0
cpu0->cpu0_STLB TRANSLATION  ACCESS:          0 HIT:          0 MISS:          0 MSHR_MERGE:          0
cpu0->cpu0_STLB PREFETCH REQUESTED:          0 ISSUED:          0 USEFUL:          0 USELESS:          0
cpu0->cpu0_STLB AVERAGE MISS LATENCY: 632.7 cycles
cpu0_STLB COHERENCE INVALIDATIONS:          0
cpu0_STLB COHERENCE WRITE-HIT OTHER-SHARER EVENTS:          0
cpu0->cpu0_L2C TOTAL        ACCESS:   32530554 HIT:   14814835 MISS:   17715719 MSHR_MERGE:          0
cpu0->cpu0_L2C LOAD         ACCESS:   21233614 HIT:    6693489 MISS:   14540125 MSHR_MERGE:          0
cpu0->cpu0_L2C RFO          ACCESS:    3448099 HIT:     506012 MISS:    2942087 MSHR_MERGE:          0
cpu0->cpu0_L2C PREFETCH     ACCESS:          0 HIT:          0 MISS:          0 MSHR_MERGE:          0
cpu0->cpu0_L2C WRITE        ACCESS:    7576856 HIT:    7575860 MISS:        996 MSHR_MERGE:          0
cpu0->cpu0_L2C TRANSLATION  ACCESS:     271985 HIT:      39474 MISS:     232511 MSHR_MERGE:          0
cpu0->cpu0_L2C PREFETCH REQUESTED:          0 ISSUED:          0 USEFUL:          0 USELESS:          0
cpu0->cpu0_L2C AVERAGE MISS LATENCY: 199.1 cycles
cpu0_L2C COHERENCE INVALIDATIONS:          0
cpu0_L2C COHERENCE WRITE-HIT OTHER-SHARER EVENTS:          0
cpu0->cpu0_L1I TOTAL        ACCESS:   31214849 HIT:   31202547 MISS:      12302 MSHR_MERGE:       6075
cpu0->cpu0_L1I LOAD         ACCESS:   31214849 HIT:   31202547 MISS:      12302 MSHR_MERGE:       6075
cpu0->cpu0_L1I RFO          ACCESS:          0 HIT:          0 MISS:          0 MSHR_MERGE:          0
cpu0->cpu0_L1I PREFETCH     ACCESS:          0 HIT:          0 MISS:          0 MSHR_MERGE:          0
cpu0->cpu0_L1I WRITE        ACCESS:          0 HIT:          0 MISS:          0 MSHR_MERGE:          0
cpu0->cpu0_L1I TRANSLATION  ACCESS:          0 HIT:          0 MISS:          0 MSHR_MERGE:          0
cpu0->cpu0_L1I PREFETCH REQUESTED:          0 ISSUED:          0 USEFUL:          0 USELESS:          0
cpu0->cpu0_L1I AVERAGE MISS LATENCY: 286.5 cycles
cpu0_L1I COHERENCE INVALIDATIONS:          0
cpu0_L1I COHERENCE WRITE-HIT OTHER-SHARER EVENTS:          0
cpu0->cpu0_L1D TOTAL        ACCESS:  103559227 HIT:   74942308 MISS:   28616919 MSHR_MERGE:    3667798
cpu0->cpu0_L1D LOAD         ACCESS:   44828150 HIT:   22597599 MISS:   22230551 MSHR_MERGE:    1002891
cpu0->cpu0_L1D RFO          ACCESS:          0 HIT:          0 MISS:          0 MSHR_MERGE:          0
cpu0->cpu0_L1D PREFETCH     ACCESS:          0 HIT:          0 MISS:          0 MSHR_MERGE:          0
cpu0->cpu0_L1D WRITE        ACCESS:   58430969 HIT:   52322118 MISS:    6108851 MSHR_MERGE:    2659375
cpu0->cpu0_L1D TRANSLATION  ACCESS:     300108 HIT:      22591 MISS:     277517 MSHR_MERGE:       5532
cpu0->cpu0_L1D PREFETCH REQUESTED:          0 ISSUED:          0 USEFUL:          0 USELESS:          0
cpu0->cpu0_L1D AVERAGE MISS LATENCY: 149.1 cycles
cpu0_L1D COHERENCE INVALIDATIONS:          0
cpu0_L1D COHERENCE WRITE-HIT OTHER-SHARER EVENTS:          0
cpu0->cpu0_ITLB TOTAL        ACCESS:   30033241 HIT:   30032175 MISS:       1066 MSHR_MERGE:        717
cpu0->cpu0_ITLB LOAD         ACCESS:   30033241 HIT:   30032175 MISS:       1066 MSHR_MERGE:        717
cpu0->cpu0_ITLB RFO          ACCESS:          0 HIT:          0 MISS:          0 MSHR_MERGE:          0
cpu0->cpu0_ITLB PREFETCH     ACCESS:          0 HIT:          0 MISS:          0 MSHR_MERGE:          0
cpu0->cpu0_ITLB WRITE        ACCESS:          0 HIT:          0 MISS:          0 MSHR_MERGE:          0
cpu0->cpu0_ITLB TRANSLATION  ACCESS:          0 HIT:          0 MISS:          0 MSHR_MERGE:          0
cpu0->cpu0_ITLB PREFETCH REQUESTED:          0 ISSUED:          0 USEFUL:          0 USELESS:          0
cpu0->cpu0_ITLB AVERAGE MISS LATENCY: 490.8 cycles
cpu0_ITLB COHERENCE INVALIDATIONS:          0
cpu0_ITLB COHERENCE WRITE-HIT OTHER-SHARER EVENTS:          0
cpu0->cpu0_DTLB TOTAL        ACCESS:   99960866 HIT:   95066822 MISS:    4894044 MSHR_MERGE:     202235
cpu0->cpu0_DTLB LOAD         ACCESS:   99960866 HIT:   95066822 MISS:    4894044 MSHR_MERGE:     202235
cpu0->cpu0_DTLB RFO          ACCESS:          0 HIT:          0 MISS:          0 MSHR_MERGE:          0
cpu0->cpu0_DTLB PREFETCH     ACCESS:          0 HIT:          0 MISS:          0 MSHR_MERGE:          0
cpu0->cpu0_DTLB WRITE        ACCESS:          0 HIT:          0 MISS:          0 MSHR_MERGE:          0
cpu0->cpu0_DTLB TRANSLATION  ACCESS:          0 HIT:          0 MISS:          0 MSHR_MERGE:          0
cpu0->cpu0_DTLB PREFETCH REQUESTED:          0 ISSUED:          0 USEFUL:          0 USELESS:          0
cpu0->cpu0_DTLB AVERAGE MISS LATENCY: 23.88 cycles
cpu0_DTLB COHERENCE INVALIDATIONS:          0
cpu0_DTLB COHERENCE WRITE-HIT OTHER-SHARER EVENTS:          0
cpu0->LLC TOTAL        ACCESS:   24150028 HIT:    9539566 MISS:   14610462 MSHR_MERGE:        202
cpu0->LLC LOAD         ACCESS:   14540111 HIT:    6089610 MISS:    8450501 MSHR_MERGE:        172
cpu0->LLC RFO          ACCESS:    2942086 HIT:     741464 MISS:    2200622 MSHR_MERGE:         30
cpu0->LLC PREFETCH     ACCESS:          0 HIT:          0 MISS:          0 MSHR_MERGE:          0
cpu0->LLC WRITE        ACCESS:    6435320 HIT:    2708443 MISS:    3726877 MSHR_MERGE:          0
cpu0->LLC TRANSLATION  ACCESS:     232511 HIT:         49 MISS:     232462 MSHR_MERGE:          0
cpu0->LLC PREFETCH REQUESTED:          0 ISSUED:          0 USEFUL:          0 USELESS:          0
cpu0->LLC AVERAGE MISS LATENCY: 334.6 cycles
cpu1->LLC TOTAL        ACCESS:    7571386 HIT:    2167140 MISS:    5404246 MSHR_MERGE:        202
cpu1->LLC LOAD         ACCESS:    7523767 HIT:    2167140 MISS:    5356627 MSHR_MERGE:        202
cpu1->LLC RFO          ACCESS:          0 HIT:          0 MISS:          0 MSHR_MERGE:          0
cpu1->LLC PREFETCH     ACCESS:          0 HIT:          0 MISS:          0 MSHR_MERGE:          0
cpu1->LLC WRITE        ACCESS:          0 HIT:          0 MISS:          0 MSHR_MERGE:          0
cpu1->LLC TRANSLATION  ACCESS:      47619 HIT:          0 MISS:      47619 MSHR_MERGE:          0
cpu1->LLC PREFETCH REQUESTED:          0 ISSUED:          0 USEFUL:          0 USELESS:          0
cpu1->LLC AVERAGE MISS LATENCY: 904.7 cycles
LLC COHERENCE INVALIDATIONS:     561656
LLC COHERENCE WRITE-HIT OTHER-SHARER EVENTS:     561656

DRAM Statistics

Channel 0 RQ ROW_BUFFER_HIT:     313527
  ROW_BUFFER_MISS:   15933268
  AVG DBUS CONGESTED CYCLE: 6.38
Channel 0 WQ ROW_BUFFER_HIT:     338691
  ROW_BUFFER_MISS:    3443188
  FULL:          9
Channel 0 REFRESHES ISSUED:      50610

VMEM ALIASED FILLS (cross-CPU shared-page hits): 90982
