[VMEM] WARNING: physical memory size is smaller than virtual memory size.

*** ChampSim Multicore Out-of-Order Simulator ***
Warmup Instructions: 50000000
Simulation Instructions: 100000000
Number of CPUs: 8
Page size: 4096

Off-chip DRAM Size: 16 GiB Channels: 1 Width: 64-bit Data Rate: 3205 MT/s
Heartbeat CPU 4 instructions: 10000001 cycles: 2509177 heartbeat IPC: 3.985 cumulative IPC: 3.985 (Simulation time: 00 hr 10 min 51 sec)
Heartbeat CPU 5 instructions: 10000003 cycles: 2509276 heartbeat IPC: 3.985 cumulative IPC: 3.985 (Simulation time: 00 hr 10 min 51 sec)
Heartbeat CPU 3 instructions: 10000003 cycles: 2509387 heartbeat IPC: 3.985 cumulative IPC: 3.985 (Simulation time: 00 hr 10 min 51 sec)
Heartbeat CPU 6 instructions: 10000000 cycles: 2509609 heartbeat IPC: 3.985 cumulative IPC: 3.985 (Simulation time: 00 hr 10 min 51 sec)
Heartbeat CPU 7 instructions: 10000002 cycles: 2509727 heartbeat IPC: 3.984 cumulative IPC: 3.984 (Simulation time: 00 hr 10 min 51 sec)
Heartbeat CPU 2 instructions: 10000001 cycles: 2510814 heartbeat IPC: 3.983 cumulative IPC: 3.983 (Simulation time: 00 hr 10 min 51 sec)
Heartbeat CPU 1 instructions: 10000001 cycles: 4697935 heartbeat IPC: 2.129 cumulative IPC: 2.129 (Simulation time: 00 hr 20 min 10 sec)
Heartbeat CPU 4 instructions: 20000001 cycles: 5009527 heartbeat IPC: 3.999 cumulative IPC: 3.992 (Simulation time: 00 hr 21 min 30 sec)
Heartbeat CPU 3 instructions: 20000004 cycles: 5009605 heartbeat IPC: 4 cumulative IPC: 3.992 (Simulation time: 00 hr 21 min 30 sec)
Heartbeat CPU 5 instructions: 20000006 cycles: 5009614 heartbeat IPC: 3.999 cumulative IPC: 3.992 (Simulation time: 00 hr 21 min 30 sec)
Heartbeat CPU 6 instructions: 20000001 cycles: 5009827 heartbeat IPC: 4 cumulative IPC: 3.992 (Simulation time: 00 hr 21 min 30 sec)
Heartbeat CPU 7 instructions: 20000004 cycles: 5009950 heartbeat IPC: 4 cumulative IPC: 3.992 (Simulation time: 00 hr 21 min 30 sec)
Heartbeat CPU 2 instructions: 20000003 cycles: 5011656 heartbeat IPC: 3.999 cumulative IPC: 3.991 (Simulation time: 00 hr 21 min 31 sec)
Heartbeat CPU 4 instructions: 30000001 cycles: 7509527 heartbeat IPC: 4 cumulative IPC: 3.995 (Simulation time: 00 hr 32 min 21 sec)
Heartbeat CPU 3 instructions: 30000004 cycles: 7509605 heartbeat IPC: 4 cumulative IPC: 3.995 (Simulation time: 00 hr 32 min 21 sec)
Heartbeat CPU 5 instructions: 30000006 cycles: 7509614 heartbeat IPC: 4 cumulative IPC: 3.995 (Simulation time: 00 hr 32 min 21 sec)
Heartbeat CPU 6 instructions: 30000001 cycles: 7509827 heartbeat IPC: 4 cumulative IPC: 3.995 (Simulation time: 00 hr 32 min 21 sec)
Heartbeat CPU 7 instructions: 30000004 cycles: 7509950 heartbeat IPC: 4 cumulative IPC: 3.995 (Simulation time: 00 hr 32 min 21 sec)
Heartbeat CPU 2 instructions: 30000003 cycles: 7511656 heartbeat IPC: 4 cumulative IPC: 3.994 (Simulation time: 00 hr 32 min 21 sec)
Heartbeat CPU 1 instructions: 20000001 cycles: 9273820 heartbeat IPC: 2.185 cumulative IPC: 2.157 (Simulation time: 00 hr 40 min 05 sec)
Heartbeat CPU 4 instructions: 40000001 cycles: 10009527 heartbeat IPC: 4 cumulative IPC: 3.996 (Simulation time: 00 hr 43 min 23 sec)
Heartbeat CPU 3 instructions: 40000004 cycles: 10009605 heartbeat IPC: 4 cumulative IPC: 3.996 (Simulation time: 00 hr 43 min 23 sec)
Heartbeat CPU 5 instructions: 40000006 cycles: 10009614 heartbeat IPC: 4 cumulative IPC: 3.996 (Simulation time: 00 hr 43 min 23 sec)
Heartbeat CPU 6 instructions: 40000001 cycles: 10009827 heartbeat IPC: 4 cumulative IPC: 3.996 (Simulation time: 00 hr 43 min 23 sec)
Heartbeat CPU 7 instructions: 40000004 cycles: 10009950 heartbeat IPC: 4 cumulative IPC: 3.996 (Simulation time: 00 hr 43 min 23 sec)
Heartbeat CPU 2 instructions: 40000003 cycles: 10011656 heartbeat IPC: 4 cumulative IPC: 3.995 (Simulation time: 00 hr 43 min 23 sec)
*** Reached end of trace: (2, "traces/ocean_8t/ocean2.champsimtrace")
*** Reached end of trace: (5, "traces/ocean_8t/ocean5.champsimtrace")
*** Reached end of trace: (4, "traces/ocean_8t/ocean4.champsimtrace")
*** Reached end of trace: (6, "traces/ocean_8t/ocean6.champsimtrace")
*** Reached end of trace: (3, "traces/ocean_8t/ocean3.champsimtrace")
*** Reached end of trace: (7, "traces/ocean_8t/ocean7.champsimtrace")
Heartbeat CPU 4 instructions: 50000002 cycles: 12511532 heartbeat IPC: 3.997 cumulative IPC: 3.996 (Simulation time: 00 hr 54 min 12 sec)
Warmup finished CPU 4 instructions: 50000002 cycles: 12511532 cumulative IPC: 3.996 (Simulation time: 00 hr 54 min 12 sec)
Warmup finished CPU 3 instructions: 50000000 cycles: 12511608 cumulative IPC: 3.996 (Simulation time: 00 hr 54 min 12 sec)
Heartbeat CPU 3 instructions: 50000004 cycles: 12511609 heartbeat IPC: 3.997 cumulative IPC: 3.996 (Simulation time: 00 hr 54 min 12 sec)
Warmup finished CPU 5 instructions: 50000001 cycles: 12511615 cumulative IPC: 3.996 (Simulation time: 00 hr 54 min 12 sec)
Heartbeat CPU 5 instructions: 50000009 cycles: 12511617 heartbeat IPC: 3.997 cumulative IPC: 3.996 (Simulation time: 00 hr 54 min 12 sec)
Heartbeat CPU 6 instructions: 50000003 cycles: 12511831 heartbeat IPC: 3.997 cumulative IPC: 3.996 (Simulation time: 00 hr 54 min 13 sec)
Warmup finished CPU 6 instructions: 50000003 cycles: 12511831 cumulative IPC: 3.996 (Simulation time: 00 hr 54 min 13 sec)
Warmup finished CPU 7 instructions: 50000003 cycles: 12511959 cumulative IPC: 3.996 (Simulation time: 00 hr 54 min 13 sec)
Heartbeat CPU 7 instructions: 50000007 cycles: 12511960 heartbeat IPC: 3.997 cumulative IPC: 3.996 (Simulation time: 00 hr 54 min 13 sec)
Warmup finished CPU 2 instructions: 50000002 cycles: 12514464 cumulative IPC: 3.995 (Simulation time: 00 hr 54 min 13 sec)
Heartbeat CPU 2 instructions: 50000006 cycles: 12514465 heartbeat IPC: 3.996 cumulative IPC: 3.995 (Simulation time: 00 hr 54 min 13 sec)
Heartbeat CPU 1 instructions: 30000002 cycles: 14627452 heartbeat IPC: 1.868 cumulative IPC: 2.051 (Simulation time: 01 hr 03 min 21 sec)
Heartbeat CPU 4 instructions: 60000002 cycles: 15011532 heartbeat IPC: 4 cumulative IPC: 3.997 (Simulation time: 01 hr 04 min 58 sec)
Heartbeat CPU 3 instructions: 60000004 cycles: 15011609 heartbeat IPC: 4 cumulative IPC: 3.997 (Simulation time: 01 hr 04 min 58 sec)
Heartbeat CPU 5 instructions: 60000009 cycles: 15011617 heartbeat IPC: 4 cumulative IPC: 3.997 (Simulation time: 01 hr 04 min 58 sec)
Heartbeat CPU 6 instructions: 60000003 cycles: 15011831 heartbeat IPC: 4 cumulative IPC: 3.997 (Simulation time: 01 hr 04 min 58 sec)
Heartbeat CPU 7 instructions: 60000007 cycles: 15011960 heartbeat IPC: 4 cumulative IPC: 3.997 (Simulation time: 01 hr 04 min 58 sec)
Heartbeat CPU 2 instructions: 60000006 cycles: 15014465 heartbeat IPC: 4 cumulative IPC: 3.996 (Simulation time: 01 hr 04 min 59 sec)
Heartbeat CPU 4 instructions: 70000002 cycles: 17511532 heartbeat IPC: 4 cumulative IPC: 3.997 (Simulation time: 01 hr 15 min 35 sec)
Heartbeat CPU 3 instructions: 70000004 cycles: 17511609 heartbeat IPC: 4 cumulative IPC: 3.997 (Simulation time: 01 hr 15 min 35 sec)
Heartbeat CPU 5 instructions: 70000009 cycles: 17511617 heartbeat IPC: 4 cumulative IPC: 3.997 (Simulation time: 01 hr 15 min 35 sec)
Heartbeat CPU 6 instructions: 70000003 cycles: 17511831 heartbeat IPC: 4 cumulative IPC: 3.997 (Simulation time: 01 hr 15 min 35 sec)
Heartbeat CPU 7 instructions: 70000007 cycles: 17511960 heartbeat IPC: 4 cumulative IPC: 3.997 (Simulation time: 01 hr 15 min 35 sec)
Heartbeat CPU 2 instructions: 70000006 cycles: 17514465 heartbeat IPC: 4 cumulative IPC: 3.997 (Simulation time: 01 hr 15 min 36 sec)
Heartbeat CPU 1 instructions: 40000004 cycles: 18876710 heartbeat IPC: 2.353 cumulative IPC: 2.119 (Simulation time: 01 hr 21 min 22 sec)
Heartbeat CPU 4 instructions: 80000002 cycles: 20011532 heartbeat IPC: 4 cumulative IPC: 3.998 (Simulation time: 01 hr 26 min 27 sec)
Heartbeat CPU 3 instructions: 80000004 cycles: 20011609 heartbeat IPC: 4 cumulative IPC: 3.998 (Simulation time: 01 hr 26 min 27 sec)
Heartbeat CPU 5 instructions: 80000009 cycles: 20011617 heartbeat IPC: 4 cumulative IPC: 3.998 (Simulation time: 01 hr 26 min 27 sec)
Heartbeat CPU 6 instructions: 80000003 cycles: 20011831 heartbeat IPC: 4 cumulative IPC: 3.998 (Simulation time: 01 hr 26 min 27 sec)
Heartbeat CPU 7 instructions: 80000007 cycles: 20011960 heartbeat IPC: 4 cumulative IPC: 3.998 (Simulation time: 01 hr 26 min 28 sec)
Heartbeat CPU 2 instructions: 80000006 cycles: 20014465 heartbeat IPC: 4 cumulative IPC: 3.997 (Simulation time: 01 hr 26 min 28 sec)
*** Reached end of trace: (1, "traces/ocean_8t/ocean1.champsimtrace")
Heartbeat CPU 0 instructions: 10000000 cycles: 20908441 heartbeat IPC: 0.4783 cumulative IPC: 0.4783 (Simulation time: 01 hr 30 min 20 sec)
Heartbeat CPU 4 instructions: 90000002 cycles: 22511532 heartbeat IPC: 4 cumulative IPC: 3.998 (Simulation time: 01 hr 36 min 59 sec)
Heartbeat CPU 3 instructions: 90000004 cycles: 22511609 heartbeat IPC: 4 cumulative IPC: 3.998 (Simulation time: 01 hr 36 min 59 sec)
Heartbeat CPU 5 instructions: 90000009 cycles: 22511617 heartbeat IPC: 4 cumulative IPC: 3.998 (Simulation time: 01 hr 36 min 59 sec)
Heartbeat CPU 6 instructions: 90000003 cycles: 22511831 heartbeat IPC: 4 cumulative IPC: 3.998 (Simulation time: 01 hr 36 min 59 sec)
Heartbeat CPU 7 instructions: 90000007 cycles: 22511960 heartbeat IPC: 4 cumulative IPC: 3.998 (Simulation time: 01 hr 36 min 59 sec)
Heartbeat CPU 2 instructions: 90000006 cycles: 22514465 heartbeat IPC: 4 cumulative IPC: 3.997 (Simulation time: 01 hr 37 min 00 sec)
*** Reached end of trace: (2, "traces/ocean_8t/ocean2.champsimtrace")
*** Reached end of trace: (5, "traces/ocean_8t/ocean5.champsimtrace")
*** Reached end of trace: (4, "traces/ocean_8t/ocean4.champsimtrace")
*** Reached end of trace: (6, "traces/ocean_8t/ocean6.champsimtrace")
*** Reached end of trace: (3, "traces/ocean_8t/ocean3.champsimtrace")
Warmup finished CPU 1 instructions: 50000002 cycles: 22753921 cumulative IPC: 2.197 (Simulation time: 01 hr 38 min 00 sec)
Heartbeat CPU 1 instructions: 50000006 cycles: 22753922 heartbeat IPC: 2.579 cumulative IPC: 2.197 (Simulation time: 01 hr 38 min 00 sec)
*** Reached end of trace: (7, "traces/ocean_8t/ocean7.champsimtrace")
Heartbeat CPU 4 instructions: 100000002 cycles: 25011532 heartbeat IPC: 4 cumulative IPC: 3.998 (Simulation time: 01 hr 47 min 54 sec)
Heartbeat CPU 3 instructions: 100000004 cycles: 25011609 heartbeat IPC: 4 cumulative IPC: 3.998 (Simulation time: 01 hr 47 min 55 sec)
Heartbeat CPU 5 instructions: 100000009 cycles: 25011617 heartbeat IPC: 4 cumulative IPC: 3.998 (Simulation time: 01 hr 47 min 55 sec)
Heartbeat CPU 6 instructions: 100000003 cycles: 25011831 heartbeat IPC: 4 cumulative IPC: 3.998 (Simulation time: 01 hr 47 min 55 sec)
Heartbeat CPU 7 instructions: 100000007 cycles: 25011960 heartbeat IPC: 4 cumulative IPC: 3.998 (Simulation time: 01 hr 47 min 55 sec)
Heartbeat CPU 2 instructions: 100000006 cycles: 25014465 heartbeat IPC: 4 cumulative IPC: 3.998 (Simulation time: 01 hr 47 min 55 sec)
Heartbeat CPU 1 instructions: 60000009 cycles: 26855883 heartbeat IPC: 2.438 cumulative IPC: 2.234 (Simulation time: 01 hr 55 min 33 sec)
Heartbeat CPU 4 instructions: 110000002 cycles: 27511532 heartbeat IPC: 4 cumulative IPC: 3.998 (Simulation time: 01 hr 58 min 09 sec)
Heartbeat CPU 3 instructions: 110000004 cycles: 27511609 heartbeat IPC: 4 cumulative IPC: 3.998 (Simulation time: 01 hr 58 min 09 sec)
Heartbeat CPU 5 instructions: 110000009 cycles: 27511617 heartbeat IPC: 4 cumulative IPC: 3.998 (Simulation time: 01 hr 58 min 09 sec)
Heartbeat CPU 6 instructions: 110000003 cycles: 27511831 heartbeat IPC: 4 cumulative IPC: 3.998 (Simulation time: 01 hr 58 min 09 sec)
Heartbeat CPU 7 instructions: 110000007 cycles: 27511960 heartbeat IPC: 4 cumulative IPC: 3.998 (Simulation time: 01 hr 58 min 09 sec)
Heartbeat CPU 2 instructions: 110000006 cycles: 27514465 heartbeat IPC: 4 cumulative IPC: 3.998 (Simulation time: 01 hr 58 min 10 sec)
Heartbeat CPU 4 instructions: 120000002 cycles: 30011532 heartbeat IPC: 4 cumulative IPC: 3.998 (Simulation time: 02 hr 08 min 09 sec)
Heartbeat CPU 3 instructions: 120000004 cycles: 30011609 heartbeat IPC: 4 cumulative IPC: 3.998 (Simulation time: 02 hr 08 min 09 sec)
Heartbeat CPU 5 instructions: 120000009 cycles: 30011617 heartbeat IPC: 4 cumulative IPC: 3.998 (Simulation time: 02 hr 08 min 09 sec)
Heartbeat CPU 6 instructions: 120000003 cycles: 30011831 heartbeat IPC: 4 cumulative IPC: 3.998 (Simulation time: 02 hr 08 min 09 sec)
Heartbeat CPU 7 instructions: 120000007 cycles: 30011960 heartbeat IPC: 4 cumulative IPC: 3.998 (Simulation time: 02 hr 08 min 09 sec)
Heartbeat CPU 2 instructions: 120000006 cycles: 30014465 heartbeat IPC: 4 cumulative IPC: 3.998 (Simulation time: 02 hr 08 min 09 sec)
Heartbeat CPU 1 instructions: 70000009 cycles: 31035522 heartbeat IPC: 2.393 cumulative IPC: 2.255 (Simulation time: 02 hr 12 min 13 sec)
Heartbeat CPU 4 instructions: 130000002 cycles: 32511532 heartbeat IPC: 4 cumulative IPC: 3.999 (Simulation time: 02 hr 18 min 04 sec)
Heartbeat CPU 3 instructions: 130000004 cycles: 32511609 heartbeat IPC: 4 cumulative IPC: 3.999 (Simulation time: 02 hr 18 min 04 sec)
Heartbeat CPU 5 instructions: 130000009 cycles: 32511617 heartbeat IPC: 4 cumulative IPC: 3.999 (Simulation time: 02 hr 18 min 04 sec)
Heartbeat CPU 6 instructions: 130000003 cycles: 32511831 heartbeat IPC: 4 cumulative IPC: 3.999 (Simulation time: 02 hr 18 min 04 sec)
Heartbeat CPU 7 instructions: 130000007 cycles: 32511960 heartbeat IPC: 4 cumulative IPC: 3.999 (Simulation time: 02 hr 18 min 04 sec)
Heartbeat CPU 2 instructions: 130000006 cycles: 32514465 heartbeat IPC: 4 cumulative IPC: 3.998 (Simulation time: 02 hr 18 min 05 sec)
*** Reached end of trace: (2, "traces/ocean_8t/ocean2.champsimtrace")
*** Reached end of trace: (5, "traces/ocean_8t/ocean5.champsimtrace")
*** Reached end of trace: (4, "traces/ocean_8t/ocean4.champsimtrace")
*** Reached end of trace: (6, "traces/ocean_8t/ocean6.champsimtrace")
*** Reached end of trace: (3, "traces/ocean_8t/ocean3.champsimtrace")
*** Reached end of trace: (7, "traces/ocean_8t/ocean7.champsimtrace")
Heartbeat CPU 4 instructions: 140000002 cycles: 35011532 heartbeat IPC: 4 cumulative IPC: 3.999 (Simulation time: 02 hr 28 min 02 sec)
Heartbeat CPU 3 instructions: 140000004 cycles: 35011609 heartbeat IPC: 4 cumulative IPC: 3.999 (Simulation time: 02 hr 28 min 02 sec)
Heartbeat CPU 5 instructions: 140000009 cycles: 35011617 heartbeat IPC: 4 cumulative IPC: 3.999 (Simulation time: 02 hr 28 min 02 sec)
Heartbeat CPU 6 instructions: 140000003 cycles: 35011831 heartbeat IPC: 4 cumulative IPC: 3.999 (Simulation time: 02 hr 28 min 02 sec)
Heartbeat CPU 7 instructions: 140000007 cycles: 35011960 heartbeat IPC: 4 cumulative IPC: 3.999 (Simulation time: 02 hr 28 min 02 sec)
Heartbeat CPU 2 instructions: 140000006 cycles: 35014465 heartbeat IPC: 4 cumulative IPC: 3.998 (Simulation time: 02 hr 28 min 02 sec)
Heartbeat CPU 1 instructions: 80000009 cycles: 36602519 heartbeat IPC: 1.796 cumulative IPC: 2.186 (Simulation time: 02 hr 34 min 26 sec)
Heartbeat CPU 4 instructions: 150000002 cycles: 37511532 heartbeat IPC: 4 cumulative IPC: 3.999 (Simulation time: 02 hr 38 min 06 sec)
Heartbeat CPU 3 instructions: 150000004 cycles: 37511609 heartbeat IPC: 4 cumulative IPC: 3.999 (Simulation time: 02 hr 38 min 06 sec)
Heartbeat CPU 5 instructions: 150000009 cycles: 37511617 heartbeat IPC: 4 cumulative IPC: 3.999 (Simulation time: 02 hr 38 min 06 sec)
Heartbeat CPU 6 instructions: 150000003 cycles: 37511831 heartbeat IPC: 4 cumulative IPC: 3.999 (Simulation time: 02 hr 38 min 06 sec)
Heartbeat CPU 7 instructions: 150000007 cycles: 37511960 heartbeat IPC: 4 cumulative IPC: 3.999 (Simulation time: 02 hr 38 min 06 sec)
Heartbeat CPU 2 instructions: 150000006 cycles: 37514465 heartbeat IPC: 4 cumulative IPC: 3.998 (Simulation time: 02 hr 38 min 06 sec)
Heartbeat CPU 4 instructions: 160000002 cycles: 40011532 heartbeat IPC: 4 cumulative IPC: 3.999 (Simulation time: 02 hr 48 min 15 sec)
Heartbeat CPU 3 instructions: 160000004 cycles: 40011609 heartbeat IPC: 4 cumulative IPC: 3.999 (Simulation time: 02 hr 48 min 15 sec)
Heartbeat CPU 5 instructions: 160000009 cycles: 40011617 heartbeat IPC: 4 cumulative IPC: 3.999 (Simulation time: 02 hr 48 min 15 sec)
Heartbeat CPU 6 instructions: 160000003 cycles: 40011831 heartbeat IPC: 4 cumulative IPC: 3.999 (Simulation time: 02 hr 48 min 15 sec)
Heartbeat CPU 7 instructions: 160000007 cycles: 40011960 heartbeat IPC: 4 cumulative IPC: 3.999 (Simulation time: 02 hr 48 min 15 sec)
Heartbeat CPU 2 instructions: 160000006 cycles: 40014465 heartbeat IPC: 4 cumulative IPC: 3.999 (Simulation time: 02 hr 48 min 16 sec)
Heartbeat CPU 1 instructions: 90000011 cycles: 40039946 heartbeat IPC: 2.909 cumulative IPC: 2.248 (Simulation time: 02 hr 48 min 22 sec)
*** Reached end of trace: (1, "traces/ocean_8t/ocean1.champsimtrace")
Heartbeat CPU 0 instructions: 20000001 cycles: 42243704 heartbeat IPC: 0.4687 cumulative IPC: 0.4734 (Simulation time: 02 hr 57 min 15 sec)
Heartbeat CPU 4 instructions: 170000002 cycles: 42511532 heartbeat IPC: 4 cumulative IPC: 3.999 (Simulation time: 02 hr 58 min 23 sec)
Heartbeat CPU 3 instructions: 170000004 cycles: 42511609 heartbeat IPC: 4 cumulative IPC: 3.999 (Simulation time: 02 hr 58 min 23 sec)
Heartbeat CPU 5 instructions: 170000009 cycles: 42511617 heartbeat IPC: 4 cumulative IPC: 3.999 (Simulation time: 02 hr 58 min 23 sec)
Heartbeat CPU 6 instructions: 170000003 cycles: 42511831 heartbeat IPC: 4 cumulative IPC: 3.999 (Simulation time: 02 hr 58 min 24 sec)
Heartbeat CPU 7 instructions: 170000007 cycles: 42511960 heartbeat IPC: 4 cumulative IPC: 3.999 (Simulation time: 02 hr 58 min 24 sec)
Heartbeat CPU 2 instructions: 170000006 cycles: 42514465 heartbeat IPC: 4 cumulative IPC: 3.999 (Simulation time: 02 hr 58 min 24 sec)
Heartbeat CPU 1 instructions: 100000013 cycles: 44129975 heartbeat IPC: 2.445 cumulative IPC: 2.266 (Simulation time: 03 hr 04 min 59 sec)
Heartbeat CPU 4 instructions: 180000002 cycles: 45011532 heartbeat IPC: 4 cumulative IPC: 3.999 (Simulation time: 03 hr 08 min 32 sec)
Heartbeat CPU 3 instructions: 180000004 cycles: 45011609 heartbeat IPC: 4 cumulative IPC: 3.999 (Simulation time: 03 hr 08 min 32 sec)
Heartbeat CPU 5 instructions: 180000009 cycles: 45011617 heartbeat IPC: 4 cumulative IPC: 3.999 (Simulation time: 03 hr 08 min 32 sec)
Heartbeat CPU 6 instructions: 180000003 cycles: 45011831 heartbeat IPC: 4 cumulative IPC: 3.999 (Simulation time: 03 hr 08 min 32 sec)
Heartbeat CPU 7 instructions: 180000007 cycles: 45011960 heartbeat IPC: 4 cumulative IPC: 3.999 (Simulation time: 03 hr 08 min 32 sec)
Heartbeat CPU 2 instructions: 180000006 cycles: 45014465 heartbeat IPC: 4 cumulative IPC: 3.999 (Simulation time: 03 hr 08 min 33 sec)
*** Reached end of trace: (2, "traces/ocean_8t/ocean2.champsimtrace")
*** Reached end of trace: (5, "traces/ocean_8t/ocean5.champsimtrace")
*** Reached end of trace: (4, "traces/ocean_8t/ocean4.champsimtrace")
*** Reached end of trace: (6, "traces/ocean_8t/ocean6.champsimtrace")
*** Reached end of trace: (3, "traces/ocean_8t/ocean3.champsimtrace")
*** Reached end of trace: (7, "traces/ocean_8t/ocean7.champsimtrace")
Heartbeat CPU 4 instructions: 190000002 cycles: 47511532 heartbeat IPC: 4 cumulative IPC: 3.999 (Simulation time: 03 hr 18 min 47 sec)
Heartbeat CPU 3 instructions: 190000004 cycles: 47511609 heartbeat IPC: 4 cumulative IPC: 3.999 (Simulation time: 03 hr 18 min 47 sec)
Heartbeat CPU 5 instructions: 190000009 cycles: 47511617 heartbeat IPC: 4 cumulative IPC: 3.999 (Simulation time: 03 hr 18 min 47 sec)
Heartbeat CPU 6 instructions: 190000003 cycles: 47511831 heartbeat IPC: 4 cumulative IPC: 3.999 (Simulation time: 03 hr 18 min 47 sec)
Heartbeat CPU 7 instructions: 190000007 cycles: 47511960 heartbeat IPC: 4 cumulative IPC: 3.999 (Simulation time: 03 hr 18 min 47 sec)
Heartbeat CPU 2 instructions: 190000006 cycles: 47514465 heartbeat IPC: 4 cumulative IPC: 3.999 (Simulation time: 03 hr 18 min 48 sec)
Heartbeat CPU 1 instructions: 110000014 cycles: 48239396 heartbeat IPC: 2.433 cumulative IPC: 2.28 (Simulation time: 03 hr 21 min 47 sec)
Heartbeat CPU 4 instructions: 200000002 cycles: 50011532 heartbeat IPC: 4 cumulative IPC: 3.999 (Simulation time: 03 hr 28 min 59 sec)
Heartbeat CPU 3 instructions: 200000004 cycles: 50011609 heartbeat IPC: 4 cumulative IPC: 3.999 (Simulation time: 03 hr 28 min 59 sec)
Heartbeat CPU 5 instructions: 200000009 cycles: 50011617 heartbeat IPC: 4 cumulative IPC: 3.999 (Simulation time: 03 hr 28 min 59 sec)
Heartbeat CPU 6 instructions: 200000003 cycles: 50011831 heartbeat IPC: 4 cumulative IPC: 3.999 (Simulation time: 03 hr 28 min 59 sec)
Heartbeat CPU 7 instructions: 200000007 cycles: 50011960 heartbeat IPC: 4 cumulative IPC: 3.999 (Simulation time: 03 hr 28 min 59 sec)
Heartbeat CPU 2 instructions: 200000006 cycles: 50014465 heartbeat IPC: 4 cumulative IPC: 3.999 (Simulation time: 03 hr 28 min 59 sec)
Heartbeat CPU 4 instructions: 210000002 cycles: 52511532 heartbeat IPC: 4 cumulative IPC: 3.999 (Simulation time: 03 hr 38 min 48 sec)
Heartbeat CPU 3 instructions: 210000004 cycles: 52511609 heartbeat IPC: 4 cumulative IPC: 3.999 (Simulation time: 03 hr 38 min 48 sec)
Heartbeat CPU 5 instructions: 210000009 cycles: 52511617 heartbeat IPC: 4 cumulative IPC: 3.999 (Simulation time: 03 hr 38 min 48 sec)
Heartbeat CPU 6 instructions: 210000003 cycles: 52511831 heartbeat IPC: 4 cumulative IPC: 3.999 (Simulation time: 03 hr 38 min 48 sec)
Heartbeat CPU 7 instructions: 210000007 cycles: 52511960 heartbeat IPC: 4 cumulative IPC: 3.999 (Simulation time: 03 hr 38 min 48 sec)
Heartbeat CPU 2 instructions: 210000006 cycles: 52514465 heartbeat IPC: 4 cumulative IPC: 3.999 (Simulation time: 03 hr 38 min 49 sec)
Heartbeat CPU 1 instructions: 120000014 cycles: 53181614 heartbeat IPC: 2.023 cumulative IPC: 2.256 (Simulation time: 03 hr 41 min 09 sec)
Heartbeat CPU 4 instructions: 220000002 cycles: 55011532 heartbeat IPC: 4 cumulative IPC: 3.999 (Simulation time: 03 hr 47 min 57 sec)
Heartbeat CPU 3 instructions: 220000004 cycles: 55011609 heartbeat IPC: 4 cumulative IPC: 3.999 (Simulation time: 03 hr 47 min 57 sec)
Heartbeat CPU 5 instructions: 220000009 cycles: 55011617 heartbeat IPC: 4 cumulative IPC: 3.999 (Simulation time: 03 hr 47 min 57 sec)
Heartbeat CPU 6 instructions: 220000003 cycles: 55011831 heartbeat IPC: 4 cumulative IPC: 3.999 (Simulation time: 03 hr 47 min 57 sec)
Heartbeat CPU 7 instructions: 220000007 cycles: 55011960 heartbeat IPC: 4 cumulative IPC: 3.999 (Simulation time: 03 hr 47 min 57 sec)
Heartbeat CPU 2 instructions: 220000006 cycles: 55014465 heartbeat IPC: 4 cumulative IPC: 3.999 (Simulation time: 03 hr 47 min 57 sec)
*** Reached end of trace: (2, "traces/ocean_8t/ocean2.champsimtrace")
*** Reached end of trace: (5, "traces/ocean_8t/ocean5.champsimtrace")
*** Reached end of trace: (4, "traces/ocean_8t/ocean4.champsimtrace")
*** Reached end of trace: (6, "traces/ocean_8t/ocean6.champsimtrace")
*** Reached end of trace: (3, "traces/ocean_8t/ocean3.champsimtrace")
*** Reached end of trace: (7, "traces/ocean_8t/ocean7.champsimtrace")
Heartbeat CPU 4 instructions: 230000002 cycles: 57511532 heartbeat IPC: 4 cumulative IPC: 3.999 (Simulation time: 03 hr 57 min 45 sec)
Heartbeat CPU 3 instructions: 230000004 cycles: 57511609 heartbeat IPC: 4 cumulative IPC: 3.999 (Simulation time: 03 hr 57 min 45 sec)
Heartbeat CPU 5 instructions: 230000009 cycles: 57511617 heartbeat IPC: 4 cumulative IPC: 3.999 (Simulation time: 03 hr 57 min 45 sec)
Heartbeat CPU 6 instructions: 230000003 cycles: 57511831 heartbeat IPC: 4 cumulative IPC: 3.999 (Simulation time: 03 hr 57 min 45 sec)
Heartbeat CPU 7 instructions: 230000007 cycles: 57511960 heartbeat IPC: 4 cumulative IPC: 3.999 (Simulation time: 03 hr 57 min 45 sec)
Heartbeat CPU 2 instructions: 230000006 cycles: 57514465 heartbeat IPC: 4 cumulative IPC: 3.999 (Simulation time: 03 hr 57 min 45 sec)
Heartbeat CPU 1 instructions: 130000015 cycles: 57676910 heartbeat IPC: 2.225 cumulative IPC: 2.254 (Simulation time: 03 hr 58 min 23 sec)
Heartbeat CPU 4 instructions: 240000002 cycles: 60011532 heartbeat IPC: 4 cumulative IPC: 3.999 (Simulation time: 04 hr 07 min 29 sec)
Heartbeat CPU 3 instructions: 240000004 cycles: 60011609 heartbeat IPC: 4 cumulative IPC: 3.999 (Simulation time: 04 hr 07 min 29 sec)
Heartbeat CPU 5 instructions: 240000009 cycles: 60011617 heartbeat IPC: 4 cumulative IPC: 3.999 (Simulation time: 04 hr 07 min 29 sec)
Heartbeat CPU 6 instructions: 240000003 cycles: 60011831 heartbeat IPC: 4 cumulative IPC: 3.999 (Simulation time: 04 hr 07 min 29 sec)
Heartbeat CPU 7 instructions: 240000007 cycles: 60011960 heartbeat IPC: 4 cumulative IPC: 3.999 (Simulation time: 04 hr 07 min 29 sec)
*** Reached end of trace: (1, "traces/ocean_8t/ocean1.champsimtrace")
Heartbeat CPU 2 instructions: 240000006 cycles: 60014465 heartbeat IPC: 4 cumulative IPC: 3.999 (Simulation time: 04 hr 07 min 29 sec)
Heartbeat CPU 1 instructions: 140000015 cycles: 61413160 heartbeat IPC: 2.676 cumulative IPC: 2.28 (Simulation time: 04 hr 12 min 56 sec)
Heartbeat CPU 0 instructions: 30000005 cycles: 62384857 heartbeat IPC: 0.4965 cumulative IPC: 0.4809 (Simulation time: 04 hr 16 min 39 sec)
Heartbeat CPU 4 instructions: 250000002 cycles: 62511532 heartbeat IPC: 4 cumulative IPC: 3.999 (Simulation time: 04 hr 17 min 08 sec)
Heartbeat CPU 3 instructions: 250000004 cycles: 62511609 heartbeat IPC: 4 cumulative IPC: 3.999 (Simulation time: 04 hr 17 min 08 sec)
Heartbeat CPU 5 instructions: 250000009 cycles: 62511617 heartbeat IPC: 4 cumulative IPC: 3.999 (Simulation time: 04 hr 17 min 08 sec)
Heartbeat CPU 6 instructions: 250000003 cycles: 62511831 heartbeat IPC: 4 cumulative IPC: 3.999 (Simulation time: 04 hr 17 min 08 sec)
Heartbeat CPU 7 instructions: 250000007 cycles: 62511960 heartbeat IPC: 4 cumulative IPC: 3.999 (Simulation time: 04 hr 17 min 08 sec)
Heartbeat CPU 2 instructions: 250000006 cycles: 62514465 heartbeat IPC: 4 cumulative IPC: 3.999 (Simulation time: 04 hr 17 min 09 sec)
Heartbeat CPU 4 instructions: 260000002 cycles: 65011532 heartbeat IPC: 4 cumulative IPC: 3.999 (Simulation time: 04 hr 26 min 48 sec)
Heartbeat CPU 3 instructions: 260000004 cycles: 65011609 heartbeat IPC: 4 cumulative IPC: 3.999 (Simulation time: 04 hr 26 min 48 sec)
Heartbeat CPU 5 instructions: 260000009 cycles: 65011617 heartbeat IPC: 4 cumulative IPC: 3.999 (Simulation time: 04 hr 26 min 48 sec)
Heartbeat CPU 6 instructions: 260000003 cycles: 65011831 heartbeat IPC: 4 cumulative IPC: 3.999 (Simulation time: 04 hr 26 min 48 sec)
Heartbeat CPU 7 instructions: 260000007 cycles: 65011960 heartbeat IPC: 4 cumulative IPC: 3.999 (Simulation time: 04 hr 26 min 48 sec)
Heartbeat CPU 2 instructions: 260000006 cycles: 65014465 heartbeat IPC: 4 cumulative IPC: 3.999 (Simulation time: 04 hr 26 min 49 sec)
Heartbeat CPU 1 instructions: 150000015 cycles: 65617306 heartbeat IPC: 2.379 cumulative IPC: 2.286 (Simulation time: 04 hr 29 min 07 sec)
Heartbeat CPU 4 instructions: 270000002 cycles: 67511532 heartbeat IPC: 4 cumulative IPC: 3.999 (Simulation time: 04 hr 36 min 29 sec)
Heartbeat CPU 3 instructions: 270000004 cycles: 67511609 heartbeat IPC: 4 cumulative IPC: 3.999 (Simulation time: 04 hr 36 min 29 sec)
Heartbeat CPU 5 instructions: 270000009 cycles: 67511617 heartbeat IPC: 4 cumulative IPC: 3.999 (Simulation time: 04 hr 36 min 29 sec)
Heartbeat CPU 6 instructions: 270000003 cycles: 67511831 heartbeat IPC: 4 cumulative IPC: 3.999 (Simulation time: 04 hr 36 min 29 sec)
Heartbeat CPU 7 instructions: 270000007 cycles: 67511960 heartbeat IPC: 4 cumulative IPC: 3.999 (Simulation time: 04 hr 36 min 29 sec)
Heartbeat CPU 2 instructions: 270000006 cycles: 67514465 heartbeat IPC: 4 cumulative IPC: 3.999 (Simulation time: 04 hr 36 min 30 sec)
*** Reached end of trace: (2, "traces/ocean_8t/ocean2.champsimtrace")
*** Reached end of trace: (5, "traces/ocean_8t/ocean5.champsimtrace")
*** Reached end of trace: (4, "traces/ocean_8t/ocean4.champsimtrace")
*** Reached end of trace: (6, "traces/ocean_8t/ocean6.champsimtrace")
*** Reached end of trace: (3, "traces/ocean_8t/ocean3.champsimtrace")
*** Reached end of trace: (7, "traces/ocean_8t/ocean7.champsimtrace")
Heartbeat CPU 1 instructions: 160000018 cycles: 69750351 heartbeat IPC: 2.42 cumulative IPC: 2.294 (Simulation time: 04 hr 45 min 10 sec)
Heartbeat CPU 4 instructions: 280000002 cycles: 70011532 heartbeat IPC: 4 cumulative IPC: 3.999 (Simulation time: 04 hr 46 min 10 sec)
Heartbeat CPU 3 instructions: 280000004 cycles: 70011609 heartbeat IPC: 4 cumulative IPC: 3.999 (Simulation time: 04 hr 46 min 10 sec)
Heartbeat CPU 5 instructions: 280000009 cycles: 70011617 heartbeat IPC: 4 cumulative IPC: 3.999 (Simulation time: 04 hr 46 min 10 sec)
Heartbeat CPU 6 instructions: 280000003 cycles: 70011831 heartbeat IPC: 4 cumulative IPC: 3.999 (Simulation time: 04 hr 46 min 10 sec)
Heartbeat CPU 7 instructions: 280000007 cycles: 70011960 heartbeat IPC: 4 cumulative IPC: 3.999 (Simulation time: 04 hr 46 min 10 sec)
Heartbeat CPU 2 instructions: 280000006 cycles: 70014465 heartbeat IPC: 4 cumulative IPC: 3.999 (Simulation time: 04 hr 46 min 11 sec)
Heartbeat CPU 4 instructions: 290000002 cycles: 72511532 heartbeat IPC: 4 cumulative IPC: 3.999 (Simulation time: 04 hr 55 min 58 sec)
Heartbeat CPU 3 instructions: 290000004 cycles: 72511609 heartbeat IPC: 4 cumulative IPC: 3.999 (Simulation time: 04 hr 55 min 58 sec)
Heartbeat CPU 5 instructions: 290000009 cycles: 72511617 heartbeat IPC: 4 cumulative IPC: 3.999 (Simulation time: 04 hr 55 min 58 sec)
Heartbeat CPU 6 instructions: 290000003 cycles: 72511831 heartbeat IPC: 4 cumulative IPC: 3.999 (Simulation time: 04 hr 55 min 58 sec)
Heartbeat CPU 7 instructions: 290000007 cycles: 72511960 heartbeat IPC: 4 cumulative IPC: 3.999 (Simulation time: 04 hr 55 min 59 sec)
Heartbeat CPU 2 instructions: 290000006 cycles: 72514465 heartbeat IPC: 4 cumulative IPC: 3.999 (Simulation time: 04 hr 55 min 59 sec)
Heartbeat CPU 4 instructions: 300000002 cycles: 75011532 heartbeat IPC: 4 cumulative IPC: 3.999 (Simulation time: 05 hr 05 min 59 sec)
Heartbeat CPU 3 instructions: 300000004 cycles: 75011609 heartbeat IPC: 4 cumulative IPC: 3.999 (Simulation time: 05 hr 05 min 59 sec)
Heartbeat CPU 5 instructions: 300000009 cycles: 75011617 heartbeat IPC: 4 cumulative IPC: 3.999 (Simulation time: 05 hr 05 min 59 sec)
Heartbeat CPU 6 instructions: 300000003 cycles: 75011831 heartbeat IPC: 4 cumulative IPC: 3.999 (Simulation time: 05 hr 05 min 59 sec)
Heartbeat CPU 7 instructions: 300000007 cycles: 75011960 heartbeat IPC: 4 cumulative IPC: 3.999 (Simulation time: 05 hr 05 min 59 sec)
Heartbeat CPU 2 instructions: 300000006 cycles: 75014465 heartbeat IPC: 4 cumulative IPC: 3.999 (Simulation time: 05 hr 06 min 00 sec)
Heartbeat CPU 1 instructions: 170000018 cycles: 75333723 heartbeat IPC: 1.791 cumulative IPC: 2.257 (Simulation time: 05 hr 07 min 17 sec)
Heartbeat CPU 4 instructions: 310000002 cycles: 77511532 heartbeat IPC: 4 cumulative IPC: 3.999 (Simulation time: 05 hr 16 min 07 sec)
Heartbeat CPU 3 instructions: 310000004 cycles: 77511609 heartbeat IPC: 4 cumulative IPC: 3.999 (Simulation time: 05 hr 16 min 07 sec)
Heartbeat CPU 5 instructions: 310000009 cycles: 77511617 heartbeat IPC: 4 cumulative IPC: 3.999 (Simulation time: 05 hr 16 min 07 sec)
Heartbeat CPU 6 instructions: 310000003 cycles: 77511831 heartbeat IPC: 4 cumulative IPC: 3.999 (Simulation time: 05 hr 16 min 07 sec)
Heartbeat CPU 7 instructions: 310000007 cycles: 77511960 heartbeat IPC: 4 cumulative IPC: 3.999 (Simulation time: 05 hr 16 min 07 sec)
Heartbeat CPU 2 instructions: 310000006 cycles: 77514465 heartbeat IPC: 4 cumulative IPC: 3.999 (Simulation time: 05 hr 16 min 08 sec)
Heartbeat CPU 1 instructions: 180000021 cycles: 78888561 heartbeat IPC: 2.813 cumulative IPC: 2.282 (Simulation time: 05 hr 21 min 38 sec)
*** Reached end of trace: (2, "traces/ocean_8t/ocean2.champsimtrace")
*** Reached end of trace: (5, "traces/ocean_8t/ocean5.champsimtrace")
*** Reached end of trace: (4, "traces/ocean_8t/ocean4.champsimtrace")
*** Reached end of trace: (6, "traces/ocean_8t/ocean6.champsimtrace")
*** Reached end of trace: (3, "traces/ocean_8t/ocean3.champsimtrace")
*** Reached end of trace: (1, "traces/ocean_8t/ocean1.champsimtrace")
*** Reached end of trace: (7, "traces/ocean_8t/ocean7.champsimtrace")
Heartbeat CPU 4 instructions: 320000002 cycles: 80011532 heartbeat IPC: 4 cumulative IPC: 3.999 (Simulation time: 05 hr 26 min 11 sec)
Heartbeat CPU 3 instructions: 320000004 cycles: 80011609 heartbeat IPC: 4 cumulative IPC: 3.999 (Simulation time: 05 hr 26 min 11 sec)
Heartbeat CPU 5 instructions: 320000009 cycles: 80011617 heartbeat IPC: 4 cumulative IPC: 3.999 (Simulation time: 05 hr 26 min 11 sec)
Heartbeat CPU 6 instructions: 320000003 cycles: 80011831 heartbeat IPC: 4 cumulative IPC: 3.999 (Simulation time: 05 hr 26 min 11 sec)
Heartbeat CPU 7 instructions: 320000007 cycles: 80011960 heartbeat IPC: 4 cumulative IPC: 3.999 (Simulation time: 05 hr 26 min 11 sec)
Heartbeat CPU 2 instructions: 320000006 cycles: 80014465 heartbeat IPC: 4 cumulative IPC: 3.999 (Simulation time: 05 hr 26 min 11 sec)
Heartbeat CPU 4 instructions: 330000002 cycles: 82511532 heartbeat IPC: 4 cumulative IPC: 3.999 (Simulation time: 05 hr 36 min 10 sec)
Heartbeat CPU 3 instructions: 330000004 cycles: 82511609 heartbeat IPC: 4 cumulative IPC: 3.999 (Simulation time: 05 hr 36 min 10 sec)
Heartbeat CPU 5 instructions: 330000009 cycles: 82511617 heartbeat IPC: 4 cumulative IPC: 3.999 (Simulation time: 05 hr 36 min 10 sec)
Heartbeat CPU 6 instructions: 330000003 cycles: 82511831 heartbeat IPC: 4 cumulative IPC: 3.999 (Simulation time: 05 hr 36 min 11 sec)
Heartbeat CPU 7 instructions: 330000007 cycles: 82511960 heartbeat IPC: 4 cumulative IPC: 3.999 (Simulation time: 05 hr 36 min 11 sec)
Heartbeat CPU 2 instructions: 330000006 cycles: 82514465 heartbeat IPC: 4 cumulative IPC: 3.999 (Simulation time: 05 hr 36 min 11 sec)
Heartbeat CPU 1 instructions: 190000024 cycles: 82895539 heartbeat IPC: 2.496 cumulative IPC: 2.292 (Simulation time: 05 hr 37 min 44 sec)
Heartbeat CPU 0 instructions: 40000006 cycles: 84873070 heartbeat IPC: 0.4447 cumulative IPC: 0.4713 (Simulation time: 05 hr 45 min 32 sec)
Heartbeat CPU 4 instructions: 340000002 cycles: 85011532 heartbeat IPC: 4 cumulative IPC: 3.999 (Simulation time: 05 hr 46 min 06 sec)
Heartbeat CPU 3 instructions: 340000004 cycles: 85011609 heartbeat IPC: 4 cumulative IPC: 3.999 (Simulation time: 05 hr 46 min 06 sec)
Heartbeat CPU 5 instructions: 340000009 cycles: 85011617 heartbeat IPC: 4 cumulative IPC: 3.999 (Simulation time: 05 hr 46 min 06 sec)
Heartbeat CPU 6 instructions: 340000003 cycles: 85011831 heartbeat IPC: 4 cumulative IPC: 3.999 (Simulation time: 05 hr 46 min 06 sec)
Heartbeat CPU 7 instructions: 340000007 cycles: 85011960 heartbeat IPC: 4 cumulative IPC: 3.999 (Simulation time: 05 hr 46 min 06 sec)
Heartbeat CPU 2 instructions: 340000006 cycles: 85014465 heartbeat IPC: 4 cumulative IPC: 3.999 (Simulation time: 05 hr 46 min 07 sec)
Heartbeat CPU 1 instructions: 200000024 cycles: 86989924 heartbeat IPC: 2.442 cumulative IPC: 2.299 (Simulation time: 05 hr 53 min 47 sec)
Heartbeat CPU 4 instructions: 350000002 cycles: 87511532 heartbeat IPC: 4 cumulative IPC: 3.999 (Simulation time: 05 hr 55 min 51 sec)
Heartbeat CPU 3 instructions: 350000004 cycles: 87511609 heartbeat IPC: 4 cumulative IPC: 3.999 (Simulation time: 05 hr 55 min 51 sec)
Heartbeat CPU 5 instructions: 350000009 cycles: 87511617 heartbeat IPC: 4 cumulative IPC: 3.999 (Simulation time: 05 hr 55 min 51 sec)
Heartbeat CPU 6 instructions: 350000003 cycles: 87511831 heartbeat IPC: 4 cumulative IPC: 3.999 (Simulation time: 05 hr 55 min 51 sec)
Heartbeat CPU 7 instructions: 350000007 cycles: 87511960 heartbeat IPC: 4 cumulative IPC: 3.999 (Simulation time: 05 hr 55 min 51 sec)
Heartbeat CPU 2 instructions: 350000006 cycles: 87514465 heartbeat IPC: 4 cumulative IPC: 3.999 (Simulation time: 05 hr 55 min 51 sec)
Heartbeat CPU 4 instructions: 360000002 cycles: 90011532 heartbeat IPC: 4 cumulative IPC: 3.999 (Simulation time: 06 hr 05 min 24 sec)
Heartbeat CPU 3 instructions: 360000004 cycles: 90011609 heartbeat IPC: 4 cumulative IPC: 3.999 (Simulation time: 06 hr 05 min 24 sec)
Heartbeat CPU 5 instructions: 360000009 cycles: 90011617 heartbeat IPC: 4 cumulative IPC: 3.999 (Simulation time: 06 hr 05 min 24 sec)
Heartbeat CPU 6 instructions: 360000003 cycles: 90011831 heartbeat IPC: 4 cumulative IPC: 3.999 (Simulation time: 06 hr 05 min 24 sec)
Heartbeat CPU 7 instructions: 360000007 cycles: 90011960 heartbeat IPC: 4 cumulative IPC: 3.999 (Simulation time: 06 hr 05 min 24 sec)
Heartbeat CPU 2 instructions: 360000006 cycles: 90014465 heartbeat IPC: 4 cumulative IPC: 3.999 (Simulation time: 06 hr 05 min 25 sec)
*** Reached end of trace: (2, "traces/ocean_8t/ocean2.champsimtrace")
*** Reached end of trace: (5, "traces/ocean_8t/ocean5.champsimtrace")
*** Reached end of trace: (4, "traces/ocean_8t/ocean4.champsimtrace")
*** Reached end of trace: (6, "traces/ocean_8t/ocean6.champsimtrace")
*** Reached end of trace: (3, "traces/ocean_8t/ocean3.champsimtrace")
*** Reached end of trace: (7, "traces/ocean_8t/ocean7.champsimtrace")
Heartbeat CPU 1 instructions: 210000026 cycles: 91750772 heartbeat IPC: 2.1 cumulative IPC: 2.289 (Simulation time: 06 hr 11 min 53 sec)
Heartbeat CPU 4 instructions: 370000002 cycles: 92511532 heartbeat IPC: 4 cumulative IPC: 4 (Simulation time: 06 hr 14 min 42 sec)
Heartbeat CPU 3 instructions: 370000004 cycles: 92511609 heartbeat IPC: 4 cumulative IPC: 3.999 (Simulation time: 06 hr 14 min 43 sec)
Heartbeat CPU 5 instructions: 370000009 cycles: 92511617 heartbeat IPC: 4 cumulative IPC: 3.999 (Simulation time: 06 hr 14 min 43 sec)
Heartbeat CPU 6 instructions: 370000003 cycles: 92511831 heartbeat IPC: 4 cumulative IPC: 3.999 (Simulation time: 06 hr 14 min 43 sec)
Heartbeat CPU 7 instructions: 370000007 cycles: 92511960 heartbeat IPC: 4 cumulative IPC: 3.999 (Simulation time: 06 hr 14 min 43 sec)
Heartbeat CPU 2 instructions: 370000006 cycles: 92514465 heartbeat IPC: 4 cumulative IPC: 3.999 (Simulation time: 06 hr 14 min 43 sec)
Heartbeat CPU 4 instructions: 380000002 cycles: 95011532 heartbeat IPC: 4 cumulative IPC: 4 (Simulation time: 06 hr 24 min 09 sec)
Heartbeat CPU 3 instructions: 380000004 cycles: 95011609 heartbeat IPC: 4 cumulative IPC: 4 (Simulation time: 06 hr 24 min 09 sec)
Heartbeat CPU 5 instructions: 380000009 cycles: 95011617 heartbeat IPC: 4 cumulative IPC: 4 (Simulation time: 06 hr 24 min 09 sec)
Heartbeat CPU 6 instructions: 380000003 cycles: 95011831 heartbeat IPC: 4 cumulative IPC: 4 (Simulation time: 06 hr 24 min 09 sec)
Heartbeat CPU 7 instructions: 380000007 cycles: 95011960 heartbeat IPC: 4 cumulative IPC: 3.999 (Simulation time: 06 hr 24 min 09 sec)
Heartbeat CPU 2 instructions: 380000006 cycles: 95014465 heartbeat IPC: 4 cumulative IPC: 3.999 (Simulation time: 06 hr 24 min 10 sec)
Heartbeat CPU 1 instructions: 220000026 cycles: 96475621 heartbeat IPC: 2.116 cumulative IPC: 2.28 (Simulation time: 06 hr 29 min 40 sec)
Heartbeat CPU 4 instructions: 390000002 cycles: 97511532 heartbeat IPC: 4 cumulative IPC: 4 (Simulation time: 06 hr 33 min 35 sec)
Heartbeat CPU 3 instructions: 390000004 cycles: 97511609 heartbeat IPC: 4 cumulative IPC: 4 (Simulation time: 06 hr 33 min 35 sec)
Heartbeat CPU 5 instructions: 390000009 cycles: 97511617 heartbeat IPC: 4 cumulative IPC: 4 (Simulation time: 06 hr 33 min 35 sec)
Heartbeat CPU 6 instructions: 390000003 cycles: 97511831 heartbeat IPC: 4 cumulative IPC: 4 (Simulation time: 06 hr 33 min 35 sec)
Heartbeat CPU 7 instructions: 390000007 cycles: 97511960 heartbeat IPC: 4 cumulative IPC: 4 (Simulation time: 06 hr 33 min 35 sec)
Heartbeat CPU 2 instructions: 390000006 cycles: 97514465 heartbeat IPC: 4 cumulative IPC: 3.999 (Simulation time: 06 hr 33 min 36 sec)
*** Reached end of trace: (0, "traces/ocean_8t/ocean0.champsimtrace")
*** Reached end of trace: (1, "traces/ocean_8t/ocean1.champsimtrace")
Heartbeat CPU 4 instructions: 400000002 cycles: 100011532 heartbeat IPC: 4 cumulative IPC: 4 (Simulation time: 06 hr 43 min 09 sec)
Heartbeat CPU 3 instructions: 400000004 cycles: 100011609 heartbeat IPC: 4 cumulative IPC: 4 (Simulation time: 06 hr 43 min 09 sec)
Heartbeat CPU 5 instructions: 400000009 cycles: 100011617 heartbeat IPC: 4 cumulative IPC: 4 (Simulation time: 06 hr 43 min 09 sec)
Heartbeat CPU 6 instructions: 400000003 cycles: 100011831 heartbeat IPC: 4 cumulative IPC: 4 (Simulation time: 06 hr 43 min 09 sec)
Heartbeat CPU 7 instructions: 400000007 cycles: 100011960 heartbeat IPC: 4 cumulative IPC: 4 (Simulation time: 06 hr 43 min 09 sec)
Heartbeat CPU 2 instructions: 400000006 cycles: 100014465 heartbeat IPC: 4 cumulative IPC: 3.999 (Simulation time: 06 hr 43 min 10 sec)
Heartbeat CPU 1 instructions: 230000028 cycles: 100191454 heartbeat IPC: 2.691 cumulative IPC: 2.296 (Simulation time: 06 hr 43 min 49 sec)
*** Reached end of trace: (2, "traces/ocean_8t/ocean2.champsimtrace")
*** Reached end of trace: (5, "traces/ocean_8t/ocean5.champsimtrace")
*** Reached end of trace: (4, "traces/ocean_8t/ocean4.champsimtrace")
*** Reached end of trace: (6, "traces/ocean_8t/ocean6.champsimtrace")
*** Reached end of trace: (3, "traces/ocean_8t/ocean3.champsimtrace")
*** Reached end of trace: (7, "traces/ocean_8t/ocean7.champsimtrace")
Heartbeat CPU 4 instructions: 410000002 cycles: 102511532 heartbeat IPC: 4 cumulative IPC: 4 (Simulation time: 06 hr 52 min 07 sec)
Heartbeat CPU 3 instructions: 410000004 cycles: 102511609 heartbeat IPC: 4 cumulative IPC: 4 (Simulation time: 06 hr 52 min 07 sec)
Heartbeat CPU 5 instructions: 410000009 cycles: 102511617 heartbeat IPC: 4 cumulative IPC: 4 (Simulation time: 06 hr 52 min 07 sec)
Heartbeat CPU 6 instructions: 410000003 cycles: 102511831 heartbeat IPC: 4 cumulative IPC: 4 (Simulation time: 06 hr 52 min 07 sec)
Heartbeat CPU 7 instructions: 410000007 cycles: 102511960 heartbeat IPC: 4 cumulative IPC: 4 (Simulation time: 06 hr 52 min 07 sec)
Heartbeat CPU 2 instructions: 410000006 cycles: 102514465 heartbeat IPC: 4 cumulative IPC: 3.999 (Simulation time: 06 hr 52 min 07 sec)
Heartbeat CPU 1 instructions: 240000029 cycles: 104366144 heartbeat IPC: 2.395 cumulative IPC: 2.3 (Simulation time: 06 hr 58 min 31 sec)
Heartbeat CPU 4 instructions: 420000002 cycles: 105011532 heartbeat IPC: 4 cumulative IPC: 4 (Simulation time: 07 hr 00 min 55 sec)
Heartbeat CPU 3 instructions: 420000004 cycles: 105011609 heartbeat IPC: 4 cumulative IPC: 4 (Simulation time: 07 hr 00 min 55 sec)
Heartbeat CPU 5 instructions: 420000009 cycles: 105011617 heartbeat IPC: 4 cumulative IPC: 4 (Simulation time: 07 hr 00 min 55 sec)
Heartbeat CPU 6 instructions: 420000003 cycles: 105011831 heartbeat IPC: 4 cumulative IPC: 4 (Simulation time: 07 hr 00 min 55 sec)
Heartbeat CPU 7 instructions: 420000007 cycles: 105011960 heartbeat IPC: 4 cumulative IPC: 4 (Simulation time: 07 hr 00 min 55 sec)
Heartbeat CPU 2 instructions: 420000006 cycles: 105014465 heartbeat IPC: 4 cumulative IPC: 3.999 (Simulation time: 07 hr 00 min 55 sec)
Warmup finished CPU 0 instructions: 50000000 cycles: 106744912 cumulative IPC: 0.4684 (Simulation time: 07 hr 07 min 12 sec)
Warmup complete CPU 7 instructions: 426931815 cycles: 106744912 cumulative IPC: 4 (Simulation time: 07 hr 07 min 12 sec)
Warmup complete CPU 6 instructions: 426932327 cycles: 106744912 cumulative IPC: 4 (Simulation time: 07 hr 07 min 12 sec)
Warmup complete CPU 5 instructions: 426933189 cycles: 106744912 cumulative IPC: 4 (Simulation time: 07 hr 07 min 12 sec)
Warmup complete CPU 4 instructions: 426933522 cycles: 106744912 cumulative IPC: 4 (Simulation time: 07 hr 07 min 12 sec)
Warmup complete CPU 3 instructions: 426933216 cycles: 106744912 cumulative IPC: 4 (Simulation time: 07 hr 07 min 12 sec)
Warmup complete CPU 2 instructions: 426921794 cycles: 106744912 cumulative IPC: 3.999 (Simulation time: 07 hr 07 min 12 sec)
Warmup complete CPU 1 instructions: 245959671 cycles: 106744912 cumulative IPC: 2.304 (Simulation time: 07 hr 07 min 12 sec)
Warmup complete CPU 0 instructions: 50000000 cycles: 106744912 cumulative IPC: 0.4684 (Simulation time: 07 hr 07 min 12 sec)
Heartbeat CPU 0 instructions: 50000008 cycles: 106745064 heartbeat IPC: 0.4572 cumulative IPC: 0.05263 (Simulation time: 07 hr 07 min 12 sec)
Heartbeat CPU 4 instructions: 430000002 cycles: 107511532 heartbeat IPC: 4 cumulative IPC: 4 (Simulation time: 07 hr 09 min 58 sec)
Heartbeat CPU 3 instructions: 430000004 cycles: 107511609 heartbeat IPC: 4 cumulative IPC: 4 (Simulation time: 07 hr 09 min 58 sec)
Heartbeat CPU 5 instructions: 430000009 cycles: 107511617 heartbeat IPC: 4 cumulative IPC: 4 (Simulation time: 07 hr 09 min 58 sec)
Heartbeat CPU 6 instructions: 430000003 cycles: 107511831 heartbeat IPC: 4 cumulative IPC: 4 (Simulation time: 07 hr 09 min 58 sec)
Heartbeat CPU 7 instructions: 430000007 cycles: 107511960 heartbeat IPC: 4 cumulative IPC: 4 (Simulation time: 07 hr 09 min 58 sec)
Heartbeat CPU 2 instructions: 430000006 cycles: 107514465 heartbeat IPC: 4 cumulative IPC: 4 (Simulation time: 07 hr 09 min 58 sec)
Heartbeat CPU 4 instructions: 440000002 cycles: 110011532 heartbeat IPC: 4 cumulative IPC: 4 (Simulation time: 07 hr 18 min 45 sec)
Heartbeat CPU 3 instructions: 440000004 cycles: 110011609 heartbeat IPC: 4 cumulative IPC: 4 (Simulation time: 07 hr 18 min 45 sec)
Heartbeat CPU 5 instructions: 440000009 cycles: 110011617 heartbeat IPC: 4 cumulative IPC: 4 (Simulation time: 07 hr 18 min 45 sec)
Heartbeat CPU 6 instructions: 440000003 cycles: 110011831 heartbeat IPC: 4 cumulative IPC: 4 (Simulation time: 07 hr 18 min 45 sec)
Heartbeat CPU 7 instructions: 440000007 cycles: 110011960 heartbeat IPC: 4 cumulative IPC: 4 (Simulation time: 07 hr 18 min 46 sec)
Heartbeat CPU 2 instructions: 440000006 cycles: 110014465 heartbeat IPC: 4 cumulative IPC: 4 (Simulation time: 07 hr 18 min 46 sec)
Heartbeat CPU 4 instructions: 450000002 cycles: 112511532 heartbeat IPC: 4 cumulative IPC: 4 (Simulation time: 07 hr 27 min 19 sec)
Heartbeat CPU 3 instructions: 450000004 cycles: 112511609 heartbeat IPC: 4 cumulative IPC: 4 (Simulation time: 07 hr 27 min 19 sec)
Heartbeat CPU 5 instructions: 450000009 cycles: 112511617 heartbeat IPC: 4 cumulative IPC: 4 (Simulation time: 07 hr 27 min 19 sec)
Heartbeat CPU 6 instructions: 450000003 cycles: 112511831 heartbeat IPC: 4 cumulative IPC: 4 (Simulation time: 07 hr 27 min 19 sec)
Heartbeat CPU 7 instructions: 450000007 cycles: 112511960 heartbeat IPC: 4 cumulative IPC: 4 (Simulation time: 07 hr 27 min 19 sec)
Heartbeat CPU 2 instructions: 450000006 cycles: 112514465 heartbeat IPC: 4 cumulative IPC: 4 (Simulation time: 07 hr 27 min 19 sec)
*** Reached end of trace: (2, "traces/ocean_8t/ocean2.champsimtrace")
*** Reached end of trace: (5, "traces/ocean_8t/ocean5.champsimtrace")
*** Reached end of trace: (4, "traces/ocean_8t/ocean4.champsimtrace")
*** Reached end of trace: (6, "traces/ocean_8t/ocean6.champsimtrace")
*** Reached end of trace: (3, "traces/ocean_8t/ocean3.champsimtrace")
*** Reached end of trace: (7, "traces/ocean_8t/ocean7.champsimtrace")
Heartbeat CPU 4 instructions: 460000004 cycles: 115011574 heartbeat IPC: 4 cumulative IPC: 4 (Simulation time: 07 hr 35 min 46 sec)
Heartbeat CPU 3 instructions: 460000006 cycles: 115011624 heartbeat IPC: 4 cumulative IPC: 4 (Simulation time: 07 hr 35 min 46 sec)
Heartbeat CPU 5 instructions: 460000009 cycles: 115011641 heartbeat IPC: 4 cumulative IPC: 4 (Simulation time: 07 hr 35 min 46 sec)
Heartbeat CPU 6 instructions: 460000003 cycles: 115011858 heartbeat IPC: 4 cumulative IPC: 4 (Simulation time: 07 hr 35 min 46 sec)
Heartbeat CPU 7 instructions: 460000008 cycles: 115011991 heartbeat IPC: 4 cumulative IPC: 4 (Simulation time: 07 hr 35 min 46 sec)
Heartbeat CPU 2 instructions: 460000007 cycles: 115014508 heartbeat IPC: 4 cumulative IPC: 4 (Simulation time: 07 hr 35 min 46 sec)
Heartbeat CPU 4 instructions: 470000004 cycles: 117511574 heartbeat IPC: 4 cumulative IPC: 4 (Simulation time: 07 hr 44 min 24 sec)
Heartbeat CPU 3 instructions: 470000006 cycles: 117511624 heartbeat IPC: 4 cumulative IPC: 4 (Simulation time: 07 hr 44 min 24 sec)
Heartbeat CPU 5 instructions: 470000009 cycles: 117511641 heartbeat IPC: 4 cumulative IPC: 4 (Simulation time: 07 hr 44 min 24 sec)
Heartbeat CPU 6 instructions: 470000003 cycles: 117511858 heartbeat IPC: 4 cumulative IPC: 4 (Simulation time: 07 hr 44 min 24 sec)
Heartbeat CPU 7 instructions: 470000008 cycles: 117511991 heartbeat IPC: 4 cumulative IPC: 4 (Simulation time: 07 hr 44 min 24 sec)
Heartbeat CPU 2 instructions: 470000007 cycles: 117514508 heartbeat IPC: 4 cumulative IPC: 4 (Simulation time: 07 hr 44 min 24 sec)
Heartbeat CPU 1 instructions: 250000029 cycles: 118670004 heartbeat IPC: 0.6991 cumulative IPC: 0.3388 (Simulation time: 07 hr 48 min 34 sec)
Heartbeat CPU 4 instructions: 480000004 cycles: 120011574 heartbeat IPC: 4 cumulative IPC: 4 (Simulation time: 07 hr 53 min 30 sec)
Heartbeat CPU 3 instructions: 480000006 cycles: 120011624 heartbeat IPC: 4 cumulative IPC: 4 (Simulation time: 07 hr 53 min 30 sec)
Heartbeat CPU 5 instructions: 480000009 cycles: 120011641 heartbeat IPC: 4 cumulative IPC: 4 (Simulation time: 07 hr 53 min 30 sec)
Heartbeat CPU 6 instructions: 480000003 cycles: 120011858 heartbeat IPC: 4 cumulative IPC: 4 (Simulation time: 07 hr 53 min 30 sec)
Heartbeat CPU 7 instructions: 480000008 cycles: 120011991 heartbeat IPC: 4 cumulative IPC: 4 (Simulation time: 07 hr 53 min 30 sec)
Heartbeat CPU 2 instructions: 480000007 cycles: 120014508 heartbeat IPC: 4 cumulative IPC: 4 (Simulation time: 07 hr 53 min 30 sec)
Heartbeat CPU 4 instructions: 490000004 cycles: 122511574 heartbeat IPC: 4 cumulative IPC: 4 (Simulation time: 08 hr 02 min 37 sec)
Heartbeat CPU 3 instructions: 490000006 cycles: 122511624 heartbeat IPC: 4 cumulative IPC: 4 (Simulation time: 08 hr 02 min 37 sec)
Heartbeat CPU 5 instructions: 490000009 cycles: 122511641 heartbeat IPC: 4 cumulative IPC: 4 (Simulation time: 08 hr 02 min 37 sec)
Heartbeat CPU 6 instructions: 490000003 cycles: 122511858 heartbeat IPC: 4 cumulative IPC: 4 (Simulation time: 08 hr 02 min 37 sec)
Heartbeat CPU 7 instructions: 490000008 cycles: 122511991 heartbeat IPC: 4 cumulative IPC: 4 (Simulation time: 08 hr 02 min 37 sec)
Heartbeat CPU 2 instructions: 490000007 cycles: 122514508 heartbeat IPC: 4 cumulative IPC: 4 (Simulation time: 08 hr 02 min 37 sec)
*** Reached end of trace: (2, "traces/ocean_8t/ocean2.champsimtrace")
*** Reached end of trace: (5, "traces/ocean_8t/ocean5.champsimtrace")
*** Reached end of trace: (4, "traces/ocean_8t/ocean4.champsimtrace")
*** Reached end of trace: (6, "traces/ocean_8t/ocean6.champsimtrace")
*** Reached end of trace: (3, "traces/ocean_8t/ocean3.champsimtrace")
Heartbeat CPU 4 instructions: 500000005 cycles: 125011607 heartbeat IPC: 4 cumulative IPC: 4 (Simulation time: 08 hr 11 min 52 sec)
Heartbeat CPU 3 instructions: 500000009 cycles: 125011639 heartbeat IPC: 4 cumulative IPC: 4 (Simulation time: 08 hr 11 min 52 sec)
Heartbeat CPU 5 instructions: 500000009 cycles: 125011662 heartbeat IPC: 4 cumulative IPC: 4 (Simulation time: 08 hr 11 min 52 sec)
Heartbeat CPU 6 instructions: 500000004 cycles: 125011891 heartbeat IPC: 4 cumulative IPC: 4 (Simulation time: 08 hr 11 min 52 sec)
Heartbeat CPU 7 instructions: 500000008 cycles: 125011991 heartbeat IPC: 4 cumulative IPC: 4 (Simulation time: 08 hr 11 min 52 sec)
Heartbeat CPU 2 instructions: 500000008 cycles: 125014551 heartbeat IPC: 4 cumulative IPC: 4 (Simulation time: 08 hr 11 min 53 sec)
*** Reached end of trace: (7, "traces/ocean_8t/ocean7.champsimtrace")
Heartbeat CPU 4 instructions: 510000005 cycles: 127511607 heartbeat IPC: 4 cumulative IPC: 4 (Simulation time: 08 hr 21 min 21 sec)
Heartbeat CPU 3 instructions: 510000009 cycles: 127511639 heartbeat IPC: 4 cumulative IPC: 4 (Simulation time: 08 hr 21 min 21 sec)
Heartbeat CPU 5 instructions: 510000009 cycles: 127511662 heartbeat IPC: 4 cumulative IPC: 4 (Simulation time: 08 hr 21 min 21 sec)
Heartbeat CPU 6 instructions: 510000004 cycles: 127511891 heartbeat IPC: 4 cumulative IPC: 4 (Simulation time: 08 hr 21 min 21 sec)
Heartbeat CPU 7 instructions: 510000010 cycles: 127512023 heartbeat IPC: 4 cumulative IPC: 4 (Simulation time: 08 hr 21 min 21 sec)
Heartbeat CPU 2 instructions: 510000008 cycles: 127514551 heartbeat IPC: 4 cumulative IPC: 4 (Simulation time: 08 hr 21 min 21 sec)
Heartbeat CPU 4 instructions: 520000005 cycles: 130011607 heartbeat IPC: 4 cumulative IPC: 4 (Simulation time: 08 hr 30 min 35 sec)
Heartbeat CPU 3 instructions: 520000009 cycles: 130011639 heartbeat IPC: 4 cumulative IPC: 4 (Simulation time: 08 hr 30 min 35 sec)
Heartbeat CPU 5 instructions: 520000009 cycles: 130011662 heartbeat IPC: 4 cumulative IPC: 4 (Simulation time: 08 hr 30 min 35 sec)
Heartbeat CPU 6 instructions: 520000004 cycles: 130011891 heartbeat IPC: 4 cumulative IPC: 4 (Simulation time: 08 hr 30 min 35 sec)
Heartbeat CPU 7 instructions: 520000010 cycles: 130012023 heartbeat IPC: 4 cumulative IPC: 4 (Simulation time: 08 hr 30 min 35 sec)
Heartbeat CPU 2 instructions: 520000008 cycles: 130014551 heartbeat IPC: 4 cumulative IPC: 4 (Simulation time: 08 hr 30 min 35 sec)
Simulation finished CPU 3 instructions: 100000001 cycles: 25000029 cumulative IPC: 4 (Simulation time: 08 hr 36 min 57 sec)
Simulation finished CPU 5 instructions: 100000000 cycles: 25000045 cumulative IPC: 4 (Simulation time: 08 hr 36 min 57 sec)
Simulation finished CPU 6 instructions: 100000001 cycles: 25000060 cumulative IPC: 4 (Simulation time: 08 hr 36 min 57 sec)
Simulation finished CPU 7 instructions: 100000003 cycles: 25000063 cumulative IPC: 4 (Simulation time: 08 hr 36 min 57 sec)
Simulation finished CPU 4 instructions: 100000003 cycles: 25000075 cumulative IPC: 4 (Simulation time: 08 hr 36 min 57 sec)
Simulation finished CPU 2 instructions: 100000002 cycles: 25000086 cumulative IPC: 4 (Simulation time: 08 hr 36 min 57 sec)
Heartbeat CPU 4 instructions: 530000005 cycles: 132511607 heartbeat IPC: 4 cumulative IPC: 4 (Simulation time: 08 hr 39 min 48 sec)
Heartbeat CPU 3 instructions: 530000009 cycles: 132511639 heartbeat IPC: 4 cumulative IPC: 4 (Simulation time: 08 hr 39 min 48 sec)
Heartbeat CPU 5 instructions: 530000009 cycles: 132511662 heartbeat IPC: 4 cumulative IPC: 4 (Simulation time: 08 hr 39 min 48 sec)
Heartbeat CPU 6 instructions: 530000004 cycles: 132511891 heartbeat IPC: 4 cumulative IPC: 4 (Simulation time: 08 hr 39 min 48 sec)
Heartbeat CPU 7 instructions: 530000010 cycles: 132512023 heartbeat IPC: 4 cumulative IPC: 4 (Simulation time: 08 hr 39 min 48 sec)
Heartbeat CPU 2 instructions: 530000008 cycles: 132514551 heartbeat IPC: 4 cumulative IPC: 4 (Simulation time: 08 hr 39 min 49 sec)
Heartbeat CPU 4 instructions: 540000005 cycles: 135011607 heartbeat IPC: 4 cumulative IPC: 4 (Simulation time: 08 hr 49 min 14 sec)
Heartbeat CPU 3 instructions: 540000009 cycles: 135011639 heartbeat IPC: 4 cumulative IPC: 4 (Simulation time: 08 hr 49 min 14 sec)
Heartbeat CPU 5 instructions: 540000009 cycles: 135011662 heartbeat IPC: 4 cumulative IPC: 4 (Simulation time: 08 hr 49 min 14 sec)
Heartbeat CPU 6 instructions: 540000004 cycles: 135011891 heartbeat IPC: 4 cumulative IPC: 4 (Simulation time: 08 hr 49 min 14 sec)
Heartbeat CPU 7 instructions: 540000010 cycles: 135012023 heartbeat IPC: 4 cumulative IPC: 4 (Simulation time: 08 hr 49 min 14 sec)
Heartbeat CPU 2 instructions: 540000008 cycles: 135014551 heartbeat IPC: 4 cumulative IPC: 4 (Simulation time: 08 hr 49 min 15 sec)
*** Reached end of trace: (2, "traces/ocean_8t/ocean2.champsimtrace")
*** Reached end of trace: (5, "traces/ocean_8t/ocean5.champsimtrace")
*** Reached end of trace: (4, "traces/ocean_8t/ocean4.champsimtrace")
*** Reached end of trace: (6, "traces/ocean_8t/ocean6.champsimtrace")
*** Reached end of trace: (3, "traces/ocean_8t/ocean3.champsimtrace")
*** Reached end of trace: (7, "traces/ocean_8t/ocean7.champsimtrace")
Heartbeat CPU 4 instructions: 550000006 cycles: 137511640 heartbeat IPC: 4 cumulative IPC: 4 (Simulation time: 08 hr 58 min 48 sec)
Heartbeat CPU 3 instructions: 550000012 cycles: 137511654 heartbeat IPC: 4 cumulative IPC: 4 (Simulation time: 08 hr 58 min 48 sec)
Heartbeat CPU 5 instructions: 550000009 cycles: 137511683 heartbeat IPC: 4 cumulative IPC: 4 (Simulation time: 08 hr 58 min 48 sec)
Heartbeat CPU 6 instructions: 550000005 cycles: 137511924 heartbeat IPC: 4 cumulative IPC: 4 (Simulation time: 08 hr 58 min 48 sec)
Heartbeat CPU 7 instructions: 550000012 cycles: 137512055 heartbeat IPC: 4 cumulative IPC: 4 (Simulation time: 08 hr 58 min 48 sec)
Heartbeat CPU 2 instructions: 550000009 cycles: 137514594 heartbeat IPC: 4 cumulative IPC: 4 (Simulation time: 08 hr 58 min 48 sec)
Heartbeat CPU 4 instructions: 560000006 cycles: 140011640 heartbeat IPC: 4 cumulative IPC: 4 (Simulation time: 09 hr 08 min 16 sec)
Heartbeat CPU 3 instructions: 560000012 cycles: 140011654 heartbeat IPC: 4 cumulative IPC: 4 (Simulation time: 09 hr 08 min 16 sec)
Heartbeat CPU 5 instructions: 560000009 cycles: 140011683 heartbeat IPC: 4 cumulative IPC: 4 (Simulation time: 09 hr 08 min 16 sec)
Heartbeat CPU 6 instructions: 560000005 cycles: 140011924 heartbeat IPC: 4 cumulative IPC: 4 (Simulation time: 09 hr 08 min 16 sec)
Heartbeat CPU 7 instructions: 560000012 cycles: 140012055 heartbeat IPC: 4 cumulative IPC: 4 (Simulation time: 09 hr 08 min 16 sec)
Heartbeat CPU 2 instructions: 560000009 cycles: 140014594 heartbeat IPC: 4 cumulative IPC: 4 (Simulation time: 09 hr 08 min 17 sec)
Heartbeat CPU 4 instructions: 570000006 cycles: 142511640 heartbeat IPC: 4 cumulative IPC: 4 (Simulation time: 09 hr 17 min 38 sec)
Heartbeat CPU 3 instructions: 570000012 cycles: 142511654 heartbeat IPC: 4 cumulative IPC: 4 (Simulation time: 09 hr 17 min 38 sec)
Heartbeat CPU 5 instructions: 570000009 cycles: 142511683 heartbeat IPC: 4 cumulative IPC: 4 (Simulation time: 09 hr 17 min 38 sec)
Heartbeat CPU 6 instructions: 570000005 cycles: 142511924 heartbeat IPC: 4 cumulative IPC: 4 (Simulation time: 09 hr 17 min 38 sec)
Heartbeat CPU 7 instructions: 570000012 cycles: 142512055 heartbeat IPC: 4 cumulative IPC: 4 (Simulation time: 09 hr 17 min 38 sec)
Heartbeat CPU 2 instructions: 570000009 cycles: 142514594 heartbeat IPC: 4 cumulative IPC: 4 (Simulation time: 09 hr 17 min 39 sec)
Heartbeat CPU 4 instructions: 580000006 cycles: 145011640 heartbeat IPC: 4 cumulative IPC: 4 (Simulation time: 09 hr 27 min 31 sec)
Heartbeat CPU 3 instructions: 580000012 cycles: 145011654 heartbeat IPC: 4 cumulative IPC: 4 (Simulation time: 09 hr 27 min 31 sec)
Heartbeat CPU 5 instructions: 580000009 cycles: 145011683 heartbeat IPC: 4 cumulative IPC: 4 (Simulation time: 09 hr 27 min 31 sec)
Heartbeat CPU 6 instructions: 580000005 cycles: 145011924 heartbeat IPC: 4 cumulative IPC: 4 (Simulation time: 09 hr 27 min 31 sec)
Heartbeat CPU 7 instructions: 580000012 cycles: 145012055 heartbeat IPC: 4 cumulative IPC: 4 (Simulation time: 09 hr 27 min 31 sec)
Heartbeat CPU 2 instructions: 580000009 cycles: 145014594 heartbeat IPC: 4 cumulative IPC: 4 (Simulation time: 09 hr 27 min 32 sec)
*** Reached end of trace: (2, "traces/ocean_8t/ocean2.champsimtrace")
*** Reached end of trace: (5, "traces/ocean_8t/ocean5.champsimtrace")
*** Reached end of trace: (4, "traces/ocean_8t/ocean4.champsimtrace")
*** Reached end of trace: (6, "traces/ocean_8t/ocean6.champsimtrace")
Heartbeat CPU 3 instructions: 590000012 cycles: 147511654 heartbeat IPC: 4 cumulative IPC: 4 (Simulation time: 09 hr 37 min 08 sec)
Heartbeat CPU 4 instructions: 590000007 cycles: 147511673 heartbeat IPC: 4 cumulative IPC: 4 (Simulation time: 09 hr 37 min 08 sec)
Heartbeat CPU 5 instructions: 590000009 cycles: 147511704 heartbeat IPC: 4 cumulative IPC: 4 (Simulation time: 09 hr 37 min 08 sec)
Heartbeat CPU 6 instructions: 590000006 cycles: 147511957 heartbeat IPC: 4 cumulative IPC: 4 (Simulation time: 09 hr 37 min 08 sec)
Heartbeat CPU 7 instructions: 590000012 cycles: 147512055 heartbeat IPC: 4 cumulative IPC: 4 (Simulation time: 09 hr 37 min 08 sec)
Heartbeat CPU 2 instructions: 590000010 cycles: 147514637 heartbeat IPC: 4 cumulative IPC: 4 (Simulation time: 09 hr 37 min 08 sec)
*** Reached end of trace: (3, "traces/ocean_8t/ocean3.champsimtrace")
*** Reached end of trace: (7, "traces/ocean_8t/ocean7.champsimtrace")
Heartbeat CPU 3 instructions: 600000015 cycles: 150011669 heartbeat IPC: 4 cumulative IPC: 4 (Simulation time: 09 hr 46 min 18 sec)
Heartbeat CPU 4 instructions: 600000007 cycles: 150011673 heartbeat IPC: 4 cumulative IPC: 4 (Simulation time: 09 hr 46 min 18 sec)
Heartbeat CPU 5 instructions: 600000009 cycles: 150011704 heartbeat IPC: 4 cumulative IPC: 4 (Simulation time: 09 hr 46 min 18 sec)
Heartbeat CPU 6 instructions: 600000006 cycles: 150011957 heartbeat IPC: 4 cumulative IPC: 4 (Simulation time: 09 hr 46 min 18 sec)
Heartbeat CPU 7 instructions: 600000014 cycles: 150012087 heartbeat IPC: 4 cumulative IPC: 4 (Simulation time: 09 hr 46 min 18 sec)
Heartbeat CPU 2 instructions: 600000010 cycles: 150014637 heartbeat IPC: 4 cumulative IPC: 4 (Simulation time: 09 hr 46 min 19 sec)
Heartbeat CPU 0 instructions: 60000011 cycles: 152363744 heartbeat IPC: 0.2192 cumulative IPC: 0.2192 (Simulation time: 09 hr 55 min 00 sec)
Heartbeat CPU 3 instructions: 610000015 cycles: 152511669 heartbeat IPC: 4 cumulative IPC: 4 (Simulation time: 09 hr 55 min 35 sec)
Heartbeat CPU 4 instructions: 610000007 cycles: 152511673 heartbeat IPC: 4 cumulative IPC: 4 (Simulation time: 09 hr 55 min 35 sec)
Heartbeat CPU 5 instructions: 610000009 cycles: 152511704 heartbeat IPC: 4 cumulative IPC: 4 (Simulation time: 09 hr 55 min 35 sec)
Heartbeat CPU 6 instructions: 610000006 cycles: 152511957 heartbeat IPC: 4 cumulative IPC: 4 (Simulation time: 09 hr 55 min 35 sec)
Heartbeat CPU 7 instructions: 610000014 cycles: 152512087 heartbeat IPC: 4 cumulative IPC: 4 (Simulation time: 09 hr 55 min 35 sec)
Heartbeat CPU 2 instructions: 610000010 cycles: 152514637 heartbeat IPC: 4 cumulative IPC: 4 (Simulation time: 09 hr 55 min 36 sec)
Heartbeat CPU 3 instructions: 620000015 cycles: 155011669 heartbeat IPC: 4 cumulative IPC: 4 (Simulation time: 10 hr 05 min 07 sec)
Heartbeat CPU 4 instructions: 620000007 cycles: 155011673 heartbeat IPC: 4 cumulative IPC: 4 (Simulation time: 10 hr 05 min 07 sec)
Heartbeat CPU 5 instructions: 620000009 cycles: 155011704 heartbeat IPC: 4 cumulative IPC: 4 (Simulation time: 10 hr 05 min 07 sec)
Heartbeat CPU 6 instructions: 620000006 cycles: 155011957 heartbeat IPC: 4 cumulative IPC: 4 (Simulation time: 10 hr 05 min 07 sec)
Heartbeat CPU 7 instructions: 620000014 cycles: 155012087 heartbeat IPC: 4 cumulative IPC: 4 (Simulation time: 10 hr 05 min 07 sec)
Heartbeat CPU 2 instructions: 620000010 cycles: 155014637 heartbeat IPC: 4 cumulative IPC: 4 (Simulation time: 10 hr 05 min 07 sec)
Heartbeat CPU 3 instructions: 630000015 cycles: 157511669 heartbeat IPC: 4 cumulative IPC: 4 (Simulation time: 10 hr 14 min 28 sec)
Heartbeat CPU 4 instructions: 630000007 cycles: 157511673 heartbeat IPC: 4 cumulative IPC: 4 (Simulation time: 10 hr 14 min 28 sec)
Heartbeat CPU 5 instructions: 630000009 cycles: 157511704 heartbeat IPC: 4 cumulative IPC: 4 (Simulation time: 10 hr 14 min 28 sec)
Heartbeat CPU 6 instructions: 630000006 cycles: 157511957 heartbeat IPC: 4 cumulative IPC: 4 (Simulation time: 10 hr 14 min 28 sec)
Heartbeat CPU 7 instructions: 630000014 cycles: 157512087 heartbeat IPC: 4 cumulative IPC: 4 (Simulation time: 10 hr 14 min 28 sec)
Heartbeat CPU 2 instructions: 630000010 cycles: 157514637 heartbeat IPC: 4 cumulative IPC: 4 (Simulation time: 10 hr 14 min 29 sec)
*** Reached end of trace: (2, "traces/ocean_8t/ocean2.champsimtrace")
*** Reached end of trace: (5, "traces/ocean_8t/ocean5.champsimtrace")
*** Reached end of trace: (4, "traces/ocean_8t/ocean4.champsimtrace")
*** Reached end of trace: (6, "traces/ocean_8t/ocean6.champsimtrace")
*** Reached end of trace: (3, "traces/ocean_8t/ocean3.champsimtrace")
*** Reached end of trace: (7, "traces/ocean_8t/ocean7.champsimtrace")
Heartbeat CPU 1 instructions: 260000031 cycles: 159347639 heartbeat IPC: 0.2458 cumulative IPC: 0.2669 (Simulation time: 10 hr 21 min 13 sec)
Heartbeat CPU 3 instructions: 640000018 cycles: 160011684 heartbeat IPC: 4 cumulative IPC: 4 (Simulation time: 10 hr 23 min 39 sec)
Heartbeat CPU 4 instructions: 640000008 cycles: 160011706 heartbeat IPC: 4 cumulative IPC: 4 (Simulation time: 10 hr 23 min 39 sec)
Heartbeat CPU 5 instructions: 640000009 cycles: 160011725 heartbeat IPC: 4 cumulative IPC: 4 (Simulation time: 10 hr 23 min 40 sec)
Heartbeat CPU 6 instructions: 640000007 cycles: 160011990 heartbeat IPC: 4 cumulative IPC: 4 (Simulation time: 10 hr 23 min 40 sec)
Heartbeat CPU 7 instructions: 640000016 cycles: 160012119 heartbeat IPC: 4 cumulative IPC: 4 (Simulation time: 10 hr 23 min 40 sec)
Heartbeat CPU 2 instructions: 640000011 cycles: 160014680 heartbeat IPC: 4 cumulative IPC: 4 (Simulation time: 10 hr 23 min 40 sec)
Heartbeat CPU 3 instructions: 650000018 cycles: 162511684 heartbeat IPC: 4 cumulative IPC: 4 (Simulation time: 10 hr 32 min 43 sec)
Heartbeat CPU 4 instructions: 650000008 cycles: 162511706 heartbeat IPC: 4 cumulative IPC: 4 (Simulation time: 10 hr 32 min 43 sec)
Heartbeat CPU 5 instructions: 650000009 cycles: 162511725 heartbeat IPC: 4 cumulative IPC: 4 (Simulation time: 10 hr 32 min 43 sec)
Heartbeat CPU 6 instructions: 650000007 cycles: 162511990 heartbeat IPC: 4 cumulative IPC: 4 (Simulation time: 10 hr 32 min 43 sec)
Heartbeat CPU 7 instructions: 650000016 cycles: 162512119 heartbeat IPC: 4 cumulative IPC: 4 (Simulation time: 10 hr 32 min 43 sec)
Heartbeat CPU 2 instructions: 650000011 cycles: 162514680 heartbeat IPC: 4 cumulative IPC: 4 (Simulation time: 10 hr 32 min 43 sec)
Heartbeat CPU 3 instructions: 660000018 cycles: 165011684 heartbeat IPC: 4 cumulative IPC: 4 (Simulation time: 10 hr 41 min 43 sec)
Heartbeat CPU 4 instructions: 660000008 cycles: 165011706 heartbeat IPC: 4 cumulative IPC: 4 (Simulation time: 10 hr 41 min 43 sec)
Heartbeat CPU 5 instructions: 660000009 cycles: 165011725 heartbeat IPC: 4 cumulative IPC: 4 (Simulation time: 10 hr 41 min 43 sec)
Heartbeat CPU 6 instructions: 660000007 cycles: 165011990 heartbeat IPC: 4 cumulative IPC: 4 (Simulation time: 10 hr 41 min 43 sec)
Heartbeat CPU 7 instructions: 660000016 cycles: 165012119 heartbeat IPC: 4 cumulative IPC: 4 (Simulation time: 10 hr 41 min 43 sec)
Heartbeat CPU 2 instructions: 660000011 cycles: 165014680 heartbeat IPC: 4 cumulative IPC: 4 (Simulation time: 10 hr 41 min 44 sec)
Heartbeat CPU 3 instructions: 670000018 cycles: 167511684 heartbeat IPC: 4 cumulative IPC: 4 (Simulation time: 10 hr 50 min 32 sec)
Heartbeat CPU 4 instructions: 670000008 cycles: 167511706 heartbeat IPC: 4 cumulative IPC: 4 (Simulation time: 10 hr 50 min 32 sec)
Heartbeat CPU 5 instructions: 670000009 cycles: 167511725 heartbeat IPC: 4 cumulative IPC: 4 (Simulation time: 10 hr 50 min 32 sec)
Heartbeat CPU 6 instructions: 670000007 cycles: 167511990 heartbeat IPC: 4 cumulative IPC: 4 (Simulation time: 10 hr 50 min 32 sec)
Heartbeat CPU 7 instructions: 670000016 cycles: 167512119 heartbeat IPC: 4 cumulative IPC: 4 (Simulation time: 10 hr 50 min 32 sec)
Heartbeat CPU 2 instructions: 670000011 cycles: 167514680 heartbeat IPC: 4 cumulative IPC: 4 (Simulation time: 10 hr 50 min 32 sec)
*** Reached end of trace: (2, "traces/ocean_8t/ocean2.champsimtrace")
*** Reached end of trace: (5, "traces/ocean_8t/ocean5.champsimtrace")
*** Reached end of trace: (4, "traces/ocean_8t/ocean4.champsimtrace")
*** Reached end of trace: (6, "traces/ocean_8t/ocean6.champsimtrace")
Heartbeat CPU 3 instructions: 680000018 cycles: 170011684 heartbeat IPC: 4 cumulative IPC: 4 (Simulation time: 10 hr 59 min 17 sec)
Heartbeat CPU 4 instructions: 680000009 cycles: 170011739 heartbeat IPC: 4 cumulative IPC: 4 (Simulation time: 10 hr 59 min 17 sec)
Heartbeat CPU 5 instructions: 680000009 cycles: 170011746 heartbeat IPC: 4 cumulative IPC: 4 (Simulation time: 10 hr 59 min 17 sec)
Heartbeat CPU 6 instructions: 680000008 cycles: 170012023 heartbeat IPC: 4 cumulative IPC: 4 (Simulation time: 10 hr 59 min 17 sec)
Heartbeat CPU 7 instructions: 680000016 cycles: 170012119 heartbeat IPC: 4 cumulative IPC: 4 (Simulation time: 10 hr 59 min 17 sec)
Heartbeat CPU 2 instructions: 680000012 cycles: 170014723 heartbeat IPC: 4 cumulative IPC: 4 (Simulation time: 10 hr 59 min 18 sec)
*** Reached end of trace: (3, "traces/ocean_8t/ocean3.champsimtrace")
*** Reached end of trace: (7, "traces/ocean_8t/ocean7.champsimtrace")
Heartbeat CPU 3 instructions: 690000021 cycles: 172511699 heartbeat IPC: 4 cumulative IPC: 4 (Simulation time: 11 hr 08 min 07 sec)
Heartbeat CPU 4 instructions: 690000009 cycles: 172511739 heartbeat IPC: 4 cumulative IPC: 4 (Simulation time: 11 hr 08 min 08 sec)
Heartbeat CPU 5 instructions: 690000009 cycles: 172511746 heartbeat IPC: 4 cumulative IPC: 4 (Simulation time: 11 hr 08 min 08 sec)
Heartbeat CPU 6 instructions: 690000008 cycles: 172512023 heartbeat IPC: 4 cumulative IPC: 4 (Simulation time: 11 hr 08 min 08 sec)
Heartbeat CPU 7 instructions: 690000018 cycles: 172512151 heartbeat IPC: 4 cumulative IPC: 4 (Simulation time: 11 hr 08 min 08 sec)
Heartbeat CPU 2 instructions: 690000012 cycles: 172514723 heartbeat IPC: 4 cumulative IPC: 4 (Simulation time: 11 hr 08 min 08 sec)
Heartbeat CPU 3 instructions: 700000021 cycles: 175011699 heartbeat IPC: 4 cumulative IPC: 4 (Simulation time: 11 hr 16 min 50 sec)
Heartbeat CPU 4 instructions: 700000009 cycles: 175011739 heartbeat IPC: 4 cumulative IPC: 4 (Simulation time: 11 hr 16 min 50 sec)
Heartbeat CPU 5 instructions: 700000009 cycles: 175011746 heartbeat IPC: 4 cumulative IPC: 4 (Simulation time: 11 hr 16 min 50 sec)
Heartbeat CPU 6 instructions: 700000008 cycles: 175012023 heartbeat IPC: 4 cumulative IPC: 4 (Simulation time: 11 hr 16 min 50 sec)
Heartbeat CPU 7 instructions: 700000018 cycles: 175012151 heartbeat IPC: 4 cumulative IPC: 4 (Simulation time: 11 hr 16 min 50 sec)
Heartbeat CPU 2 instructions: 700000012 cycles: 175014723 heartbeat IPC: 4 cumulative IPC: 4 (Simulation time: 11 hr 16 min 50 sec)
Heartbeat CPU 3 instructions: 710000021 cycles: 177511699 heartbeat IPC: 4 cumulative IPC: 4 (Simulation time: 11 hr 25 min 38 sec)
Heartbeat CPU 4 instructions: 710000009 cycles: 177511739 heartbeat IPC: 4 cumulative IPC: 4 (Simulation time: 11 hr 25 min 38 sec)
Heartbeat CPU 5 instructions: 710000009 cycles: 177511746 heartbeat IPC: 4 cumulative IPC: 4 (Simulation time: 11 hr 25 min 38 sec)
Heartbeat CPU 6 instructions: 710000008 cycles: 177512023 heartbeat IPC: 4 cumulative IPC: 4 (Simulation time: 11 hr 25 min 38 sec)
Heartbeat CPU 7 instructions: 710000018 cycles: 177512151 heartbeat IPC: 4 cumulative IPC: 4 (Simulation time: 11 hr 25 min 38 sec)
Heartbeat CPU 2 instructions: 710000012 cycles: 177514723 heartbeat IPC: 4 cumulative IPC: 4 (Simulation time: 11 hr 25 min 39 sec)
Heartbeat CPU 3 instructions: 720000021 cycles: 180011699 heartbeat IPC: 4 cumulative IPC: 4 (Simulation time: 11 hr 34 min 33 sec)
Heartbeat CPU 4 instructions: 720000009 cycles: 180011739 heartbeat IPC: 4 cumulative IPC: 4 (Simulation time: 11 hr 34 min 33 sec)
Heartbeat CPU 5 instructions: 720000009 cycles: 180011746 heartbeat IPC: 4 cumulative IPC: 4 (Simulation time: 11 hr 34 min 33 sec)
Heartbeat CPU 6 instructions: 720000008 cycles: 180012023 heartbeat IPC: 4 cumulative IPC: 4 (Simulation time: 11 hr 34 min 33 sec)
Heartbeat CPU 7 instructions: 720000018 cycles: 180012151 heartbeat IPC: 4 cumulative IPC: 4 (Simulation time: 11 hr 34 min 33 sec)
Heartbeat CPU 2 instructions: 720000012 cycles: 180014723 heartbeat IPC: 4 cumulative IPC: 4 (Simulation time: 11 hr 34 min 34 sec)
*** Reached end of trace: (2, "traces/ocean_8t/ocean2.champsimtrace")
*** Reached end of trace: (5, "traces/ocean_8t/ocean5.champsimtrace")
*** Reached end of trace: (4, "traces/ocean_8t/ocean4.champsimtrace")
*** Reached end of trace: (6, "traces/ocean_8t/ocean6.champsimtrace")
*** Reached end of trace: (3, "traces/ocean_8t/ocean3.champsimtrace")
*** Reached end of trace: (7, "traces/ocean_8t/ocean7.champsimtrace")
Heartbeat CPU 3 instructions: 730000024 cycles: 182511714 heartbeat IPC: 4 cumulative IPC: 4 (Simulation time: 11 hr 43 min 29 sec)
Heartbeat CPU 5 instructions: 730000009 cycles: 182511767 heartbeat IPC: 4 cumulative IPC: 4 (Simulation time: 11 hr 43 min 29 sec)
Heartbeat CPU 4 instructions: 730000010 cycles: 182511772 heartbeat IPC: 4 cumulative IPC: 4 (Simulation time: 11 hr 43 min 29 sec)
Heartbeat CPU 6 instructions: 730000009 cycles: 182512056 heartbeat IPC: 4 cumulative IPC: 4 (Simulation time: 11 hr 43 min 29 sec)
Heartbeat CPU 7 instructions: 730000020 cycles: 182512183 heartbeat IPC: 4 cumulative IPC: 4 (Simulation time: 11 hr 43 min 30 sec)
Heartbeat CPU 2 instructions: 730000013 cycles: 182514766 heartbeat IPC: 4 cumulative IPC: 4 (Simulation time: 11 hr 43 min 30 sec)
Heartbeat CPU 3 instructions: 740000024 cycles: 185011714 heartbeat IPC: 4 cumulative IPC: 4 (Simulation time: 11 hr 52 min 28 sec)
Heartbeat CPU 5 instructions: 740000009 cycles: 185011767 heartbeat IPC: 4 cumulative IPC: 4 (Simulation time: 11 hr 52 min 28 sec)
Heartbeat CPU 4 instructions: 740000010 cycles: 185011772 heartbeat IPC: 4 cumulative IPC: 4 (Simulation time: 11 hr 52 min 28 sec)
Heartbeat CPU 6 instructions: 740000009 cycles: 185012056 heartbeat IPC: 4 cumulative IPC: 4 (Simulation time: 11 hr 52 min 28 sec)
Heartbeat CPU 7 instructions: 740000020 cycles: 185012183 heartbeat IPC: 4 cumulative IPC: 4 (Simulation time: 11 hr 52 min 28 sec)
Heartbeat CPU 2 instructions: 740000013 cycles: 185014766 heartbeat IPC: 4 cumulative IPC: 4 (Simulation time: 11 hr 52 min 28 sec)
Heartbeat CPU 3 instructions: 750000024 cycles: 187511714 heartbeat IPC: 4 cumulative IPC: 4 (Simulation time: 12 hr 01 min 29 sec)
Heartbeat CPU 5 instructions: 750000009 cycles: 187511767 heartbeat IPC: 4 cumulative IPC: 4 (Simulation time: 12 hr 01 min 29 sec)
Heartbeat CPU 4 instructions: 750000010 cycles: 187511772 heartbeat IPC: 4 cumulative IPC: 4 (Simulation time: 12 hr 01 min 29 sec)
Heartbeat CPU 6 instructions: 750000009 cycles: 187512056 heartbeat IPC: 4 cumulative IPC: 4 (Simulation time: 12 hr 01 min 29 sec)
Heartbeat CPU 7 instructions: 750000020 cycles: 187512183 heartbeat IPC: 4 cumulative IPC: 4 (Simulation time: 12 hr 01 min 29 sec)
Heartbeat CPU 2 instructions: 750000013 cycles: 187514766 heartbeat IPC: 4 cumulative IPC: 4 (Simulation time: 12 hr 01 min 29 sec)
Heartbeat CPU 3 instructions: 760000024 cycles: 190011714 heartbeat IPC: 4 cumulative IPC: 4 (Simulation time: 12 hr 10 min 33 sec)
Heartbeat CPU 5 instructions: 760000009 cycles: 190011767 heartbeat IPC: 4 cumulative IPC: 4 (Simulation time: 12 hr 10 min 33 sec)
Heartbeat CPU 4 instructions: 760000010 cycles: 190011772 heartbeat IPC: 4 cumulative IPC: 4 (Simulation time: 12 hr 10 min 33 sec)
Heartbeat CPU 6 instructions: 760000009 cycles: 190012056 heartbeat IPC: 4 cumulative IPC: 4 (Simulation time: 12 hr 10 min 33 sec)
Heartbeat CPU 7 instructions: 760000020 cycles: 190012183 heartbeat IPC: 4 cumulative IPC: 4 (Simulation time: 12 hr 10 min 33 sec)
Heartbeat CPU 2 instructions: 760000013 cycles: 190014766 heartbeat IPC: 4 cumulative IPC: 4 (Simulation time: 12 hr 10 min 34 sec)
*** Reached end of trace: (2, "traces/ocean_8t/ocean2.champsimtrace")
*** Reached end of trace: (5, "traces/ocean_8t/ocean5.champsimtrace")
*** Reached end of trace: (4, "traces/ocean_8t/ocean4.champsimtrace")
*** Reached end of trace: (6, "traces/ocean_8t/ocean6.champsimtrace")
Heartbeat CPU 3 instructions: 770000024 cycles: 192511714 heartbeat IPC: 4 cumulative IPC: 4 (Simulation time: 12 hr 19 min 50 sec)
Heartbeat CPU 5 instructions: 770000009 cycles: 192511788 heartbeat IPC: 4 cumulative IPC: 4 (Simulation time: 12 hr 19 min 50 sec)
Heartbeat CPU 4 instructions: 770000011 cycles: 192511805 heartbeat IPC: 4 cumulative IPC: 4 (Simulation time: 12 hr 19 min 50 sec)
Heartbeat CPU 6 instructions: 770000010 cycles: 192512089 heartbeat IPC: 4 cumulative IPC: 4 (Simulation time: 12 hr 19 min 50 sec)
Heartbeat CPU 7 instructions: 770000020 cycles: 192512183 heartbeat IPC: 4 cumulative IPC: 4 (Simulation time: 12 hr 19 min 50 sec)
Heartbeat CPU 2 instructions: 770000014 cycles: 192514809 heartbeat IPC: 4 cumulative IPC: 4 (Simulation time: 12 hr 19 min 51 sec)
*** Reached end of trace: (3, "traces/ocean_8t/ocean3.champsimtrace")
*** Reached end of trace: (7, "traces/ocean_8t/ocean7.champsimtrace")
Heartbeat CPU 3 instructions: 780000027 cycles: 195011729 heartbeat IPC: 4 cumulative IPC: 4 (Simulation time: 12 hr 29 min 09 sec)
Heartbeat CPU 5 instructions: 780000009 cycles: 195011788 heartbeat IPC: 4 cumulative IPC: 4 (Simulation time: 12 hr 29 min 09 sec)
Heartbeat CPU 4 instructions: 780000011 cycles: 195011805 heartbeat IPC: 4 cumulative IPC: 4 (Simulation time: 12 hr 29 min 09 sec)
Heartbeat CPU 6 instructions: 780000010 cycles: 195012089 heartbeat IPC: 4 cumulative IPC: 4 (Simulation time: 12 hr 29 min 09 sec)
Heartbeat CPU 7 instructions: 780000022 cycles: 195012215 heartbeat IPC: 4 cumulative IPC: 4 (Simulation time: 12 hr 29 min 09 sec)
Heartbeat CPU 2 instructions: 780000014 cycles: 195014809 heartbeat IPC: 4 cumulative IPC: 4 (Simulation time: 12 hr 29 min 10 sec)
Heartbeat CPU 1 instructions: 270000031 cycles: 196995366 heartbeat IPC: 0.2656 cumulative IPC: 0.2664 (Simulation time: 12 hr 36 min 32 sec)
Heartbeat CPU 3 instructions: 790000027 cycles: 197511729 heartbeat IPC: 4 cumulative IPC: 4 (Simulation time: 12 hr 38 min 29 sec)
Heartbeat CPU 5 instructions: 790000009 cycles: 197511788 heartbeat IPC: 4 cumulative IPC: 4 (Simulation time: 12 hr 38 min 29 sec)
Heartbeat CPU 4 instructions: 790000011 cycles: 197511805 heartbeat IPC: 4 cumulative IPC: 4 (Simulation time: 12 hr 38 min 29 sec)
Heartbeat CPU 6 instructions: 790000010 cycles: 197512089 heartbeat IPC: 4 cumulative IPC: 4 (Simulation time: 12 hr 38 min 29 sec)
Heartbeat CPU 7 instructions: 790000022 cycles: 197512215 heartbeat IPC: 4 cumulative IPC: 4 (Simulation time: 12 hr 38 min 29 sec)
Heartbeat CPU 2 instructions: 790000014 cycles: 197514809 heartbeat IPC: 4 cumulative IPC: 4 (Simulation time: 12 hr 38 min 29 sec)
Heartbeat CPU 3 instructions: 800000027 cycles: 200011729 heartbeat IPC: 4 cumulative IPC: 4 (Simulation time: 12 hr 47 min 55 sec)
Heartbeat CPU 5 instructions: 800000009 cycles: 200011788 heartbeat IPC: 4 cumulative IPC: 4 (Simulation time: 12 hr 47 min 55 sec)
Heartbeat CPU 4 instructions: 800000011 cycles: 200011805 heartbeat IPC: 4 cumulative IPC: 4 (Simulation time: 12 hr 47 min 55 sec)
Heartbeat CPU 6 instructions: 800000010 cycles: 200012089 heartbeat IPC: 4 cumulative IPC: 4 (Simulation time: 12 hr 47 min 55 sec)
Heartbeat CPU 7 instructions: 800000022 cycles: 200012215 heartbeat IPC: 4 cumulative IPC: 4 (Simulation time: 12 hr 47 min 55 sec)
Heartbeat CPU 2 instructions: 800000014 cycles: 200014809 heartbeat IPC: 4 cumulative IPC: 4 (Simulation time: 12 hr 47 min 56 sec)
Heartbeat CPU 3 instructions: 810000027 cycles: 202511729 heartbeat IPC: 4 cumulative IPC: 4 (Simulation time: 12 hr 57 min 11 sec)
Heartbeat CPU 5 instructions: 810000009 cycles: 202511788 heartbeat IPC: 4 cumulative IPC: 4 (Simulation time: 12 hr 57 min 11 sec)
Heartbeat CPU 4 instructions: 810000011 cycles: 202511805 heartbeat IPC: 4 cumulative IPC: 4 (Simulation time: 12 hr 57 min 11 sec)
Heartbeat CPU 6 instructions: 810000010 cycles: 202512089 heartbeat IPC: 4 cumulative IPC: 4 (Simulation time: 12 hr 57 min 11 sec)
Heartbeat CPU 7 instructions: 810000022 cycles: 202512215 heartbeat IPC: 4 cumulative IPC: 4 (Simulation time: 12 hr 57 min 11 sec)
Heartbeat CPU 2 instructions: 810000014 cycles: 202514809 heartbeat IPC: 4 cumulative IPC: 4 (Simulation time: 12 hr 57 min 12 sec)
[...]
cpu4->cpu4_ITLB PREFETCH REQUESTED:          0 ISSUED:          0 USEFUL:          0 USELESS:          0
cpu4->cpu4_ITLB AVERAGE MISS LATENCY: 3.86 cycles
cpu4_ITLB COHERENCE INVALIDATIONS:          0
cpu4_ITLB COHERENCE WRITE-HIT OTHER-SHARER EVENTS:          0
cpu4_DTLB COHERENCE INVALIDATIONS:          0
cpu4_DTLB COHERENCE WRITE-HIT OTHER-SHARER EVENTS:          0
cpu3->cpu3_STLB TOTAL        ACCESS:        800 HIT:        800 MISS:          0 MSHR_MERGE:          0
cpu3->cpu3_STLB LOAD         ACCESS:        800 HIT:        800 MISS:          0 MSHR_MERGE:          0
cpu3->cpu3_STLB RFO          ACCESS:          0 HIT:          0 MISS:          0 MSHR_MERGE:          0
cpu3->cpu3_STLB PREFETCH     ACCESS:          0 HIT:          0 MISS:          0 MSHR_MERGE:          0
cpu3->cpu3_STLB WRITE        ACCESS:          0 HIT:          0 MISS:          0 MSHR_MERGE:          0
cpu3->cpu3_STLB TRANSLATION  ACCESS:          0 HIT:          0 MISS:          0 MSHR_MERGE:          0
cpu3->cpu3_STLB PREFETCH REQUESTED:          0 ISSUED:          0 USEFUL:          0 USELESS:          0
cpu3->cpu3_STLB AVERAGE MISS LATENCY: - cycles
cpu3_STLB COHERENCE INVALIDATIONS:          0
cpu3_STLB COHERENCE WRITE-HIT OTHER-SHARER EVENTS:          0
cpu3->cpu3_L2C TOTAL        ACCESS:      77983 HIT:      77983 MISS:          0 MSHR_MERGE:          0
cpu3->cpu3_L2C LOAD         ACCESS:      77983 HIT:      77983 MISS:          0 MSHR_MERGE:          0
cpu3->cpu3_L2C RFO          ACCESS:          0 HIT:          0 MISS:          0 MSHR_MERGE:          0
cpu3->cpu3_L2C PREFETCH     ACCESS:          0 HIT:          0 MISS:          0 MSHR_MERGE:          0
cpu3->cpu3_L2C WRITE        ACCESS:          0 HIT:          0 MISS:          0 MSHR_MERGE:          0
cpu3->cpu3_L2C TRANSLATION  ACCESS:          0 HIT:          0 MISS:          0 MSHR_MERGE:          0
cpu3->cpu3_L2C PREFETCH REQUESTED:          0 ISSUED:          0 USEFUL:          0 USELESS:          0
cpu3->cpu3_L2C AVERAGE MISS LATENCY: - cycles
cpu3_L2C COHERENCE INVALIDATIONS:          0
cpu3_L2C COHERENCE WRITE-HIT OTHER-SHARER EVENTS:          0
cpu3->cpu3_L1I TOTAL        ACCESS:  355330741 HIT:  355213824 MISS:     116917 MSHR_MERGE:      38934
cpu3->cpu3_L1I LOAD         ACCESS:  355330741 HIT:  355213824 MISS:     116917 MSHR_MERGE:      38934
cpu3->cpu3_L1I RFO          ACCESS:          0 HIT:          0 MISS:          0 MSHR_MERGE:          0
cpu3->cpu3_L1I PREFETCH     ACCESS:          0 HIT:          0 MISS:          0 MSHR_MERGE:          0
cpu3->cpu3_L1I WRITE        ACCESS:          0 HIT:          0 MISS:          0 MSHR_MERGE:          0
cpu3->cpu3_L1I TRANSLATION  ACCESS:          0 HIT:          0 MISS:          0 MSHR_MERGE:          0
cpu3->cpu3_L1I PREFETCH REQUESTED:          0 ISSUED:          0 USEFUL:          0 USELESS:          0
cpu3->cpu3_L1I AVERAGE MISS LATENCY: 7 cycles
cpu3_L1I COHERENCE INVALIDATIONS:          0
cpu3_L1I COHERENCE WRITE-HIT OTHER-SHARER EVENTS:          0
cpu3_L1D COHERENCE INVALIDATIONS:          0
cpu3_L1D COHERENCE WRITE-HIT OTHER-SHARER EVENTS:          0
cpu3->cpu3_ITLB TOTAL        ACCESS:  281378120 HIT:  281376620 MISS:       1500 MSHR_MERGE:        700
cpu3->cpu3_ITLB LOAD         ACCESS:  281378120 HIT:  281376620 MISS:       1500 MSHR_MERGE:        700
cpu3->cpu3_ITLB RFO          ACCESS:          0 HIT:          0 MISS:          0 MSHR_MERGE:          0
cpu3->cpu3_ITLB PREFETCH     ACCESS:          0 HIT:          0 MISS:          0 MSHR_MERGE:          0
cpu3->cpu3_ITLB WRITE        ACCESS:          0 HIT:          0 MISS:          0 MSHR_MERGE:          0
cpu3->cpu3_ITLB TRANSLATION  ACCESS:          0 HIT:          0 MISS:          0 MSHR_MERGE:          0
cpu3->cpu3_ITLB PREFETCH REQUESTED:          0 ISSUED:          0 USEFUL:          0 USELESS:          0
cpu3->cpu3_ITLB AVERAGE MISS LATENCY: 4 cycles
cpu3_ITLB COHERENCE INVALIDATIONS:          0
cpu3_ITLB COHERENCE WRITE-HIT OTHER-SHARER EVENTS:          0
cpu3_DTLB COHERENCE INVALIDATIONS:          0
cpu3_DTLB COHERENCE WRITE-HIT OTHER-SHARER EVENTS:          0
cpu2->cpu2_STLB TOTAL        ACCESS:        800 HIT:        800 MISS:          0 MSHR_MERGE:          0
cpu2->cpu2_STLB LOAD         ACCESS:        800 HIT:        800 MISS:          0 MSHR_MERGE:          0
cpu2->cpu2_STLB RFO          ACCESS:          0 HIT:          0 MISS:          0 MSHR_MERGE:          0
cpu2->cpu2_STLB PREFETCH     ACCESS:          0 HIT:          0 MISS:          0 MSHR_MERGE:          0
cpu2->cpu2_STLB WRITE        ACCESS:          0 HIT:          0 MISS:          0 MSHR_MERGE:          0
cpu2->cpu2_STLB TRANSLATION  ACCESS:          0 HIT:          0 MISS:          0 MSHR_MERGE:          0
cpu2->cpu2_STLB PREFETCH REQUESTED:          0 ISSUED:          0 USEFUL:          0 USELESS:          0
cpu2->cpu2_STLB AVERAGE MISS LATENCY: - cycles
cpu2_STLB COHERENCE INVALIDATIONS:          0
cpu2_STLB COHERENCE WRITE-HIT OTHER-SHARER EVENTS:          0
cpu2->cpu2_L2C TOTAL        ACCESS:      83005 HIT:      83005 MISS:          0 MSHR_MERGE:          0
cpu2->cpu2_L2C LOAD         ACCESS:      83005 HIT:      83005 MISS:          0 MSHR_MERGE:          0
cpu2->cpu2_L2C RFO          ACCESS:          0 HIT:          0 MISS:          0 MSHR_MERGE:          0
cpu2->cpu2_L2C PREFETCH     ACCESS:          0 HIT:          0 MISS:          0 MSHR_MERGE:          0
cpu2->cpu2_L2C WRITE        ACCESS:          0 HIT:          0 MISS:          0 MSHR_MERGE:          0
cpu2->cpu2_L2C TRANSLATION  ACCESS:          0 HIT:          0 MISS:          0 MSHR_MERGE:          0
cpu2->cpu2_L2C PREFETCH REQUESTED:          0 ISSUED:          0 USEFUL:          0 USELESS:          0
cpu2->cpu2_L2C AVERAGE MISS LATENCY: - cycles
cpu2_L2C COHERENCE INVALIDATIONS:          0
cpu2_L2C COHERENCE WRITE-HIT OTHER-SHARER EVENTS:          0
cpu2->cpu2_L1I TOTAL        ACCESS:  324603673 HIT:  324484437 MISS:     119236 MSHR_MERGE:      36231
cpu2->cpu2_L1I LOAD         ACCESS:  324603673 HIT:  324484437 MISS:     119236 MSHR_MERGE:      36231
cpu2->cpu2_L1I RFO          ACCESS:          0 HIT:          0 MISS:          0 MSHR_MERGE:          0
cpu2->cpu2_L1I PREFETCH     ACCESS:          0 HIT:          0 MISS:          0 MSHR_MERGE:          0
cpu2->cpu2_L1I WRITE        ACCESS:          0 HIT:          0 MISS:          0 MSHR_MERGE:          0
cpu2->cpu2_L1I TRANSLATION  ACCESS:          0 HIT:          0 MISS:          0 MSHR_MERGE:          0
cpu2->cpu2_L1I PREFETCH REQUESTED:          0 ISSUED:          0 USEFUL:          0 USELESS:          0
cpu2->cpu2_L1I AVERAGE MISS LATENCY: 7 cycles
cpu2_L1I COHERENCE INVALIDATIONS:          0
cpu2_L1I COHERENCE WRITE-HIT OTHER-SHARER EVENTS:          0
cpu2_L1D COHERENCE INVALIDATIONS:          0
cpu2_L1D COHERENCE WRITE-HIT OTHER-SHARER EVENTS:          0
cpu2->cpu2_ITLB TOTAL        ACCESS:  261078395 HIT:  261077045 MISS:       1350 MSHR_MERGE:        550
cpu2->cpu2_ITLB LOAD         ACCESS:  261078395 HIT:  261077045 MISS:       1350 MSHR_MERGE:        550
cpu2->cpu2_ITLB RFO          ACCESS:          0 HIT:          0 MISS:          0 MSHR_MERGE:          0
cpu2->cpu2_ITLB PREFETCH     ACCESS:          0 HIT:          0 MISS:          0 MSHR_MERGE:          0
cpu2->cpu2_ITLB WRITE        ACCESS:          0 HIT:          0 MISS:          0 MSHR_MERGE:          0
cpu2->cpu2_ITLB TRANSLATION  ACCESS:          0 HIT:          0 MISS:          0 MSHR_MERGE:          0
cpu2->cpu2_ITLB PREFETCH REQUESTED:          0 ISSUED:          0 USEFUL:          0 USELESS:          0
cpu2->cpu2_ITLB AVERAGE MISS LATENCY: 4 cycles
cpu2_ITLB COHERENCE INVALIDATIONS:          0
cpu2_ITLB COHERENCE WRITE-HIT OTHER-SHARER EVENTS:          0
cpu2_DTLB COHERENCE INVALIDATIONS:          0
cpu2_DTLB COHERENCE WRITE-HIT OTHER-SHARER EVENTS:          0
cpu1->cpu1_STLB TOTAL        ACCESS:     959400 HIT:     926958 MISS:      32442 MSHR_MERGE:          0
cpu1->cpu1_STLB LOAD         ACCESS:     959400 HIT:     926958 MISS:      32442 MSHR_MERGE:          0
cpu1->cpu1_STLB RFO          ACCESS:          0 HIT:          0 MISS:          0 MSHR_MERGE:          0
cpu1->cpu1_STLB PREFETCH     ACCESS:          0 HIT:          0 MISS:          0 MSHR_MERGE:          0
cpu1->cpu1_STLB WRITE        ACCESS:          0 HIT:          0 MISS:          0 MSHR_MERGE:          0
cpu1->cpu1_STLB TRANSLATION  ACCESS:          0 HIT:          0 MISS:          0 MSHR_MERGE:          0
cpu1->cpu1_STLB PREFETCH REQUESTED:          0 ISSUED:          0 USEFUL:          0 USELESS:          0
cpu1->cpu1_STLB AVERAGE MISS LATENCY: 503.1 cycles
cpu1_STLB COHERENCE INVALIDATIONS:          0
cpu1_STLB COHERENCE WRITE-HIT OTHER-SHARER EVENTS:          0
cpu1->cpu1_L2C TOTAL        ACCESS:   13654006 HIT:    5547717 MISS:    8106289 MSHR_MERGE:          0
cpu1->cpu1_L2C LOAD         ACCESS:   13603619 HIT:    5547717 MISS:    8055902 MSHR_MERGE:          0
cpu1->cpu1_L2C RFO          ACCESS:          0 HIT:          0 MISS:          0 MSHR_MERGE:          0
cpu1->cpu1_L2C PREFETCH     ACCESS:          0 HIT:          0 MISS:          0 MSHR_MERGE:          0
cpu1->cpu1_L2C WRITE        ACCESS:          0 HIT:          0 MISS:          0 MSHR_MERGE:          0
cpu1->cpu1_L2C TRANSLATION  ACCESS:      50387 HIT:          0 MISS:      50387 MSHR_MERGE:          0
cpu1->cpu1_L2C PREFETCH REQUESTED:          0 ISSUED:          0 USEFUL:          0 USELESS:          0
cpu1->cpu1_L2C AVERAGE MISS LATENCY: 198.3 cycles
cpu1_L2C COHERENCE INVALIDATIONS:          0
cpu1_L2C COHERENCE WRITE-HIT OTHER-SHARER EVENTS:          0
cpu1->cpu1_L1I TOTAL        ACCESS:   50051061 HIT:   34580889 MISS:   15470172 MSHR_MERGE:    1866553
cpu1->cpu1_L1I LOAD         ACCESS:   50051061 HIT:   34580889 MISS:   15470172 MSHR_MERGE:    1866553
cpu1->cpu1_L1I RFO          ACCESS:          0 HIT:          0 MISS:          0 MSHR_MERGE:          0
cpu1->cpu1_L1I PREFETCH     ACCESS:          0 HIT:          0 MISS:          0 MSHR_MERGE:          0
cpu1->cpu1_L1I WRITE        ACCESS:          0 HIT:          0 MISS:          0 MSHR_MERGE:          0
cpu1->cpu1_L1I TRANSLATION  ACCESS:          0 HIT:          0 MISS:          0 MSHR_MERGE:          0
cpu1->cpu1_L1I PREFETCH REQUESTED:          0 ISSUED:          0 USEFUL:          0 USELESS:          0
cpu1->cpu1_L1I AVERAGE MISS LATENCY: 124.6 cycles
cpu1_L1I COHERENCE INVALIDATIONS:          0
cpu1_L1I COHERENCE WRITE-HIT OTHER-SHARER EVENTS:          0
cpu1->cpu1_L1D TOTAL        ACCESS:      64897 HIT:      14510 MISS:      50387 MSHR_MERGE:          0
cpu1->cpu1_L1D LOAD         ACCESS:          0 HIT:          0 MISS:          0 MSHR_MERGE:          0
cpu1->cpu1_L1D RFO          ACCESS:          0 HIT:          0 MISS:          0 MSHR_MERGE:          0
cpu1->cpu1_L1D PREFETCH     ACCESS:          0 HIT:          0 MISS:          0 MSHR_MERGE:          0
cpu1->cpu1_L1D WRITE        ACCESS:          0 HIT:          0 MISS:          0 MSHR_MERGE:          0
cpu1->cpu1_L1D TRANSLATION  ACCESS:      64897 HIT:      14510 MISS:      50387 MSHR_MERGE:          0
cpu1->cpu1_L1D PREFETCH REQUESTED:          0 ISSUED:          0 USEFUL:          0 USELESS:          0
cpu1->cpu1_L1D AVERAGE MISS LATENCY: 316.5 cycles
cpu1_L1D COHERENCE INVALIDATIONS:          0
cpu1_L1D COHERENCE WRITE-HIT OTHER-SHARER EVENTS:          0
cpu1->cpu1_ITLB TOTAL        ACCESS:   49183748 HIT:   48182532 MISS:    1001216 MSHR_MERGE:      41816
cpu1->cpu1_ITLB LOAD         ACCESS:   49183748 HIT:   48182532 MISS:    1001216 MSHR_MERGE:      41816
cpu1->cpu1_ITLB RFO          ACCESS:          0 HIT:          0 MISS:          0 MSHR_MERGE:          0
cpu1->cpu1_ITLB PREFETCH     ACCESS:          0 HIT:          0 MISS:          0 MSHR_MERGE:          0
cpu1->cpu1_ITLB WRITE        ACCESS:          0 HIT:          0 MISS:          0 MSHR_MERGE:          0
cpu1->cpu1_ITLB TRANSLATION  ACCESS:          0 HIT:          0 MISS:          0 MSHR_MERGE:          0
cpu1->cpu1_ITLB PREFETCH REQUESTED:          0 ISSUED:          0 USEFUL:          0 USELESS:          0
cpu1->cpu1_ITLB AVERAGE MISS LATENCY: 21.05 cycles
cpu1_ITLB COHERENCE INVALIDATIONS:          0
cpu1_ITLB COHERENCE WRITE-HIT OTHER-SHARER EVENTS:          0
cpu1_DTLB COHERENCE INVALIDATIONS:          0
cpu1_DTLB COHERENCE WRITE-HIT OTHER-SHARER EVENTS:          0
cpu0->cpu0_STLB TOTAL        ACCESS:    4685023 HIT:    4537518 MISS:     147505 MSHR_MERGE:          0
cpu0->cpu0_STLB LOAD         ACCESS:    4685023 HIT:    4537518 MISS:     147505 MSHR_MERGE:          0
cpu0->cpu0_STLB RFO          ACCESS:          0 HIT:          0 MISS:          0 MSHR_MERGE:          0
cpu0->cpu0_STLB PREFETCH     ACCESS:          0 HIT:          0 MISS:          0 MSHR_MERGE:          0
cpu0->cpu0_STLB WRITE        ACCESS:          0 HIT:          0 MISS:          0 MSHR_MERGE:          0
cpu0->cpu0_STLB TRANSLATION  ACCESS:          0 HIT:          0 MISS:          0 MSHR_MERGE:          0
cpu0->cpu0_STLB PREFETCH REQUESTED:          0 ISSUED:          0 USEFUL:          0 USELESS:          0
cpu0->cpu0_STLB AVERAGE MISS LATENCY: 624.1 cycles
cpu0_STLB COHERENCE INVALIDATIONS:          0
cpu0_STLB COHERENCE WRITE-HIT OTHER-SHARER EVENTS:          0
cpu0->cpu0_L2C TOTAL        ACCESS:   32535025 HIT:   14834390 MISS:   17700635 MSHR_MERGE:          0
cpu0->cpu0_L2C LOAD         ACCESS:   21216316 HIT:    6710814 MISS:   14505502 MSHR_MERGE:          0
cpu0->cpu0_L2C RFO          ACCESS:    3468153 HIT:     506432 MISS:    2961721 MSHR_MERGE:          0
cpu0->cpu0_L2C PREFETCH     ACCESS:          0 HIT:          0 MISS:          0 MSHR_MERGE:          0
cpu0->cpu0_L2C WRITE        ACCESS:    7578513 HIT:    7577494 MISS:       1019 MSHR_MERGE:          0
cpu0->cpu0_L2C TRANSLATION  ACCESS:     272043 HIT:      39650 MISS:     232393 MSHR_MERGE:          0
cpu0->cpu0_L2C PREFETCH REQUESTED:          0 ISSUED:          0 USEFUL:          0 USELESS:          0
cpu0->cpu0_L2C AVERAGE MISS LATENCY: 174.9 cycles
cpu0_L2C COHERENCE INVALIDATIONS:          0
cpu0_L2C COHERENCE WRITE-HIT OTHER-SHARER EVENTS:          0
cpu0->cpu0_L1I TOTAL        ACCESS:   31236228 HIT:   31224412 MISS:      11816 MSHR_MERGE:       5587
cpu0->cpu0_L1I LOAD         ACCESS:   31236228 HIT:   31224412 MISS:      11816 MSHR_MERGE:       5587
cpu0->cpu0_L1I RFO          ACCESS:          0 HIT:          0 MISS:          0 MSHR_MERGE:          0
cpu0->cpu0_L1I PREFETCH     ACCESS:          0 HIT:          0 MISS:          0 MSHR_MERGE:          0
cpu0->cpu0_L1I WRITE        ACCESS:          0 HIT:          0 MISS:          0 MSHR_MERGE:          0
cpu0->cpu0_L1I TRANSLATION  ACCESS:          0 HIT:          0 MISS:          0 MSHR_MERGE:          0
cpu0->cpu0_L1I PREFETCH REQUESTED:          0 ISSUED:          0 USEFUL:          0 USELESS:          0
cpu0->cpu0_L1I AVERAGE MISS LATENCY: 259.7 cycles
cpu0_L1I COHERENCE INVALIDATIONS:          0
cpu0_L1I COHERENCE WRITE-HIT OTHER-SHARER EVENTS:          0
cpu0->cpu0_L1D TOTAL        ACCESS:  103355441 HIT:   74861709 MISS:   28493732 MSHR_MERGE:    3541698
cpu0->cpu0_L1D LOAD         ACCESS:   44580391 HIT:   22450327 MISS:   22130064 MSHR_MERGE:     919690
cpu0->cpu0_L1D RFO          ACCESS:          0 HIT:          0 MISS:          0 MSHR_MERGE:          0
cpu0->cpu0_L1D PREFETCH     ACCESS:          0 HIT:          0 MISS:          0 MSHR_MERGE:          0
cpu0->cpu0_L1D WRITE        ACCESS:   58474862 HIT:   52388846 MISS:    6086016 MSHR_MERGE:    2616399
cpu0->cpu0_L1D TRANSLATION  ACCESS:     300188 HIT:      22536 MISS:     277652 MSHR_MERGE:       5609
cpu0->cpu0_L1D PREFETCH REQUESTED:          0 ISSUED:          0 USEFUL:          0 USELESS:          0
cpu0->cpu0_L1D AVERAGE MISS LATENCY: 131.7 cycles
cpu0_L1D COHERENCE INVALIDATIONS:          0
cpu0_L1D COHERENCE WRITE-HIT OTHER-SHARER EVENTS:          0
cpu0->cpu0_ITLB TOTAL        ACCESS:   30045765 HIT:   30044721 MISS:       1044 MSHR_MERGE:        695
cpu0->cpu0_ITLB LOAD         ACCESS:   30045765 HIT:   30044721 MISS:       1044 MSHR_MERGE:        695
cpu0->cpu0_ITLB RFO          ACCESS:          0 HIT:          0 MISS:          0 MSHR_MERGE:          0
cpu0->cpu0_ITLB PREFETCH     ACCESS:          0 HIT:          0 MISS:          0 MSHR_MERGE:          0
cpu0->cpu0_ITLB WRITE        ACCESS:          0 HIT:          0 MISS:          0 MSHR_MERGE:          0
cpu0->cpu0_ITLB TRANSLATION  ACCESS:          0 HIT:          0 MISS:          0 MSHR_MERGE:          0
cpu0->cpu0_ITLB PREFETCH REQUESTED:          0 ISSUED:          0 USEFUL:          0 USELESS:          0
cpu0->cpu0_ITLB AVERAGE MISS LATENCY: 505 cycles
cpu0_ITLB COHERENCE INVALIDATIONS:          0
cpu0_ITLB COHERENCE WRITE-HIT OTHER-SHARER EVENTS:          0
cpu0->cpu0_DTLB TOTAL        ACCESS:   99749514 HIT:   94860204 MISS:    4889310 MSHR_MERGE:     204636
cpu0->cpu0_DTLB LOAD         ACCESS:   99749514 HIT:   94860204 MISS:    4889310 MSHR_MERGE:     204636
cpu0->cpu0_DTLB RFO          ACCESS:          0 HIT:          0 MISS:          0 MSHR_MERGE:          0
cpu0->cpu0_DTLB PREFETCH     ACCESS:          0 HIT:          0 MISS:          0 MSHR_MERGE:          0
cpu0->cpu0_DTLB WRITE        ACCESS:          0 HIT:          0 MISS:          0 MSHR_MERGE:          0
cpu0->cpu0_DTLB TRANSLATION  ACCESS:          0 HIT:          0 MISS:          0 MSHR_MERGE:          0
cpu0->cpu0_DTLB PREFETCH REQUESTED:          0 ISSUED:          0 USEFUL:          0 USELESS:          0
cpu0->cpu0_DTLB AVERAGE MISS LATENCY: 23.64 cycles
cpu0_DTLB COHERENCE INVALIDATIONS:          0
cpu0_DTLB COHERENCE WRITE-HIT OTHER-SHARER EVENTS:          0
cpu0->LLC TOTAL        ACCESS:   24135887 HIT:   11377697 MISS:   12758190 MSHR_MERGE:        147
cpu0->LLC LOAD         ACCESS:   14505482 HIT:    7335452 MISS:    7170030 MSHR_MERGE:        121
cpu0->LLC RFO          ACCESS:    2961721 HIT:     861291 MISS:    2100430 MSHR_MERGE:         26
cpu0->LLC PREFETCH     ACCESS:          0 HIT:          0 MISS:          0 MSHR_MERGE:          0
cpu0->LLC WRITE        ACCESS:    6436291 HIT:    3180890 MISS:    3255401 MSHR_MERGE:          0
cpu0->LLC TRANSLATION  ACCESS:     232393 HIT:         64 MISS:     232329 MSHR_MERGE:          0
cpu0->LLC PREFETCH REQUESTED:          0 ISSUED:          0 USEFUL:          0 USELESS:          0
cpu0->LLC AVERAGE MISS LATENCY: 339.4 cycles
cpu1->LLC TOTAL        ACCESS:    8106289 HIT:    3027155 MISS:    5079134 MSHR_MERGE:        127
cpu1->LLC LOAD         ACCESS:    8055902 HIT:    3027155 MISS:    5028747 MSHR_MERGE:        127
cpu1->LLC RFO          ACCESS:          0 HIT:          0 MISS:          0 MSHR_MERGE:          0
cpu1->LLC PREFETCH     ACCESS:          0 HIT:          0 MISS:          0 MSHR_MERGE:          0
cpu1->LLC WRITE        ACCESS:          0 HIT:          0 MISS:          0 MSHR_MERGE:          0
cpu1->LLC TRANSLATION  ACCESS:      50387 HIT:          0 MISS:      50387 MSHR_MERGE:          0
cpu1->LLC PREFETCH REQUESTED:          0 ISSUED:          0 USEFUL:          0 USELESS:          0
cpu1->LLC AVERAGE MISS LATENCY: 852.7 cycles
LLC COHERENCE INVALIDATIONS:     724452
LLC COHERENCE WRITE-HIT OTHER-SHARER EVENTS:     724452
LLC SHARER HIST TOTAL:      285392672
LLC SHARER HIST[ 1]:      148308725  (51.967%)
LLC SHARER HIST[ 2]:      134776891  (47.225%)
LLC SHARER HIST[ 3]:          15879  ( 0.006%)
LLC SHARER HIST[ 4]:         116535  ( 0.041%)
LLC SHARER HIST[ 5]:         204855  ( 0.072%)
LLC SHARER HIST[ 6]:         181794  ( 0.064%)
LLC SHARER HIST[ 7]:         316354  ( 0.111%)
LLC SHARER HIST[ 8]:        1471639  ( 0.516%)

DRAM Statistics

Channel 0 RQ ROW_BUFFER_HIT:     283556
  ROW_BUFFER_MISS:   14272336
  AVG DBUS CONGESTED CYCLE: 6.422
Channel 0 WQ ROW_BUFFER_HIT:     320223
  ROW_BUFFER_MISS:    2968765
  FULL:         27
Channel 0 REFRESHES ISSUED:      47198

VMEM ALIASED FILLS (cross-CPU shared-page hits): 91344
