[VMEM] WARNING: physical memory size is smaller than virtual memory size.

*** ChampSim Multicore Out-of-Order Simulator ***
Warmup Instructions: 50000000
Simulation Instructions: 100000000
Number of CPUs: 8
Page size: 4096

Off-chip DRAM Size: 16 GiB Channels: 1 Width: 64-bit Data Rate: 3205 MT/s
Heartbeat CPU 4 instructions: 10000001 cycles: 2509177 heartbeat IPC: 3.985 cumulative IPC: 3.985 (Simulation time: 00 hr 10 min 40 sec)
Heartbeat CPU 5 instructions: 10000003 cycles: 2509276 heartbeat IPC: 3.985 cumulative IPC: 3.985 (Simulation time: 00 hr 10 min 40 sec)
Heartbeat CPU 3 instructions: 10000003 cycles: 2509389 heartbeat IPC: 3.985 cumulative IPC: 3.985 (Simulation time: 00 hr 10 min 40 sec)
Heartbeat CPU 6 instructions: 10000000 cycles: 2509599 heartbeat IPC: 3.985 cumulative IPC: 3.985 (Simulation time: 00 hr 10 min 41 sec)
Heartbeat CPU 7 instructions: 10000002 cycles: 2509727 heartbeat IPC: 3.984 cumulative IPC: 3.984 (Simulation time: 00 hr 10 min 41 sec)
Heartbeat CPU 2 instructions: 10000001 cycles: 2510814 heartbeat IPC: 3.983 cumulative IPC: 3.983 (Simulation time: 00 hr 10 min 41 sec)
Heartbeat CPU 1 instructions: 10000001 cycles: 4694375 heartbeat IPC: 2.13 cumulative IPC: 2.13 (Simulation time: 00 hr 19 min 51 sec)
Heartbeat CPU 4 instructions: 20000004 cycles: 5009522 heartbeat IPC: 3.999 cumulative IPC: 3.992 (Simulation time: 00 hr 21 min 11 sec)
Heartbeat CPU 3 instructions: 20000004 cycles: 5009607 heartbeat IPC: 4 cumulative IPC: 3.992 (Simulation time: 00 hr 21 min 11 sec)
Heartbeat CPU 5 instructions: 20000006 cycles: 5009614 heartbeat IPC: 3.999 cumulative IPC: 3.992 (Simulation time: 00 hr 21 min 11 sec)
Heartbeat CPU 6 instructions: 20000001 cycles: 5009819 heartbeat IPC: 4 cumulative IPC: 3.992 (Simulation time: 00 hr 21 min 11 sec)
Heartbeat CPU 7 instructions: 20000003 cycles: 5009948 heartbeat IPC: 4 cumulative IPC: 3.992 (Simulation time: 00 hr 21 min 11 sec)
Heartbeat CPU 2 instructions: 20000003 cycles: 5011653 heartbeat IPC: 3.999 cumulative IPC: 3.991 (Simulation time: 00 hr 21 min 12 sec)
Heartbeat CPU 4 instructions: 30000004 cycles: 7509522 heartbeat IPC: 4 cumulative IPC: 3.995 (Simulation time: 00 hr 31 min 49 sec)
Heartbeat CPU 3 instructions: 30000004 cycles: 7509607 heartbeat IPC: 4 cumulative IPC: 3.995 (Simulation time: 00 hr 31 min 49 sec)
Heartbeat CPU 5 instructions: 30000006 cycles: 7509614 heartbeat IPC: 4 cumulative IPC: 3.995 (Simulation time: 00 hr 31 min 49 sec)
Heartbeat CPU 6 instructions: 30000001 cycles: 7509819 heartbeat IPC: 4 cumulative IPC: 3.995 (Simulation time: 00 hr 31 min 49 sec)
Heartbeat CPU 7 instructions: 30000003 cycles: 7509948 heartbeat IPC: 4 cumulative IPC: 3.995 (Simulation time: 00 hr 31 min 49 sec)
Heartbeat CPU 2 instructions: 30000003 cycles: 7511653 heartbeat IPC: 4 cumulative IPC: 3.994 (Simulation time: 00 hr 31 min 50 sec)
Heartbeat CPU 1 instructions: 20000001 cycles: 9263795 heartbeat IPC: 2.188 cumulative IPC: 2.159 (Simulation time: 00 hr 39 min 18 sec)
Heartbeat CPU 4 instructions: 40000004 cycles: 10009522 heartbeat IPC: 4 cumulative IPC: 3.996 (Simulation time: 00 hr 42 min 30 sec)
Heartbeat CPU 3 instructions: 40000004 cycles: 10009607 heartbeat IPC: 4 cumulative IPC: 3.996 (Simulation time: 00 hr 42 min 30 sec)
Heartbeat CPU 5 instructions: 40000006 cycles: 10009614 heartbeat IPC: 4 cumulative IPC: 3.996 (Simulation time: 00 hr 42 min 30 sec)
Heartbeat CPU 6 instructions: 40000001 cycles: 10009819 heartbeat IPC: 4 cumulative IPC: 3.996 (Simulation time: 00 hr 42 min 30 sec)
Heartbeat CPU 7 instructions: 40000003 cycles: 10009948 heartbeat IPC: 4 cumulative IPC: 3.996 (Simulation time: 00 hr 42 min 30 sec)
Heartbeat CPU 2 instructions: 40000003 cycles: 10011653 heartbeat IPC: 4 cumulative IPC: 3.995 (Simulation time: 00 hr 42 min 31 sec)
*** Reached end of trace: (2, "traces/ocean_8t/ocean2.champsimtrace")
*** Reached end of trace: (5, "traces/ocean_8t/ocean5.champsimtrace")
*** Reached end of trace: (4, "traces/ocean_8t/ocean4.champsimtrace")
*** Reached end of trace: (6, "traces/ocean_8t/ocean6.champsimtrace")
*** Reached end of trace: (3, "traces/ocean_8t/ocean3.champsimtrace")
*** Reached end of trace: (7, "traces/ocean_8t/ocean7.champsimtrace")
Warmup finished CPU 4 instructions: 50000002 cycles: 12511532 cumulative IPC: 3.996 (Simulation time: 00 hr 53 min 12 sec)
Heartbeat CPU 4 instructions: 50000006 cycles: 12511533 heartbeat IPC: 3.997 cumulative IPC: 3.996 (Simulation time: 00 hr 53 min 12 sec)
Warmup finished CPU 3 instructions: 50000000 cycles: 12511606 cumulative IPC: 3.996 (Simulation time: 00 hr 53 min 12 sec)
Heartbeat CPU 3 instructions: 50000004 cycles: 12511607 heartbeat IPC: 3.997 cumulative IPC: 3.996 (Simulation time: 00 hr 53 min 12 sec)
Warmup finished CPU 5 instructions: 50000001 cycles: 12511617 cumulative IPC: 3.996 (Simulation time: 00 hr 53 min 12 sec)
Heartbeat CPU 5 instructions: 50000009 cycles: 12511619 heartbeat IPC: 3.997 cumulative IPC: 3.996 (Simulation time: 00 hr 53 min 12 sec)
Heartbeat CPU 6 instructions: 50000003 cycles: 12511821 heartbeat IPC: 3.997 cumulative IPC: 3.996 (Simulation time: 00 hr 53 min 12 sec)
Warmup finished CPU 6 instructions: 50000003 cycles: 12511821 cumulative IPC: 3.996 (Simulation time: 00 hr 53 min 12 sec)
Heartbeat CPU 7 instructions: 50000003 cycles: 12511954 heartbeat IPC: 3.997 cumulative IPC: 3.996 (Simulation time: 00 hr 53 min 12 sec)
Warmup finished CPU 7 instructions: 50000003 cycles: 12511954 cumulative IPC: 3.996 (Simulation time: 00 hr 53 min 12 sec)
Warmup finished CPU 2 instructions: 50000002 cycles: 12514459 cumulative IPC: 3.995 (Simulation time: 00 hr 53 min 13 sec)
Heartbeat CPU 2 instructions: 50000006 cycles: 12514460 heartbeat IPC: 3.996 cumulative IPC: 3.995 (Simulation time: 00 hr 53 min 13 sec)
Heartbeat CPU 1 instructions: 30000002 cycles: 14612827 heartbeat IPC: 1.869 cumulative IPC: 2.053 (Simulation time: 01 hr 02 min 06 sec)
Heartbeat CPU 4 instructions: 60000006 cycles: 15011533 heartbeat IPC: 4 cumulative IPC: 3.997 (Simulation time: 01 hr 03 min 45 sec)
Heartbeat CPU 3 instructions: 60000004 cycles: 15011607 heartbeat IPC: 4 cumulative IPC: 3.997 (Simulation time: 01 hr 03 min 45 sec)
Heartbeat CPU 5 instructions: 60000009 cycles: 15011619 heartbeat IPC: 4 cumulative IPC: 3.997 (Simulation time: 01 hr 03 min 45 sec)
Heartbeat CPU 6 instructions: 60000003 cycles: 15011821 heartbeat IPC: 4 cumulative IPC: 3.997 (Simulation time: 01 hr 03 min 45 sec)
Heartbeat CPU 7 instructions: 60000003 cycles: 15011954 heartbeat IPC: 4 cumulative IPC: 3.997 (Simulation time: 01 hr 03 min 45 sec)
Heartbeat CPU 2 instructions: 60000006 cycles: 15014460 heartbeat IPC: 4 cumulative IPC: 3.996 (Simulation time: 01 hr 03 min 45 sec)
Heartbeat CPU 4 instructions: 70000006 cycles: 17511533 heartbeat IPC: 4 cumulative IPC: 3.997 (Simulation time: 01 hr 14 min 15 sec)
Heartbeat CPU 3 instructions: 70000004 cycles: 17511607 heartbeat IPC: 4 cumulative IPC: 3.997 (Simulation time: 01 hr 14 min 15 sec)
Heartbeat CPU 5 instructions: 70000009 cycles: 17511619 heartbeat IPC: 4 cumulative IPC: 3.997 (Simulation time: 01 hr 14 min 15 sec)
Heartbeat CPU 6 instructions: 70000003 cycles: 17511821 heartbeat IPC: 4 cumulative IPC: 3.997 (Simulation time: 01 hr 14 min 15 sec)
Heartbeat CPU 7 instructions: 70000003 cycles: 17511954 heartbeat IPC: 4 cumulative IPC: 3.997 (Simulation time: 01 hr 14 min 15 sec)
Heartbeat CPU 2 instructions: 70000006 cycles: 17514460 heartbeat IPC: 4 cumulative IPC: 3.997 (Simulation time: 01 hr 14 min 16 sec)
Heartbeat CPU 1 instructions: 40000004 cycles: 18855245 heartbeat IPC: 2.357 cumulative IPC: 2.121 (Simulation time: 01 hr 19 min 50 sec)
Heartbeat CPU 4 instructions: 80000006 cycles: 20011533 heartbeat IPC: 4 cumulative IPC: 3.998 (Simulation time: 01 hr 24 min 56 sec)
Heartbeat CPU 3 instructions: 80000004 cycles: 20011607 heartbeat IPC: 4 cumulative IPC: 3.998 (Simulation time: 01 hr 24 min 56 sec)
Heartbeat CPU 5 instructions: 80000009 cycles: 20011619 heartbeat IPC: 4 cumulative IPC: 3.998 (Simulation time: 01 hr 24 min 56 sec)
Heartbeat CPU 6 instructions: 80000003 cycles: 20011821 heartbeat IPC: 4 cumulative IPC: 3.998 (Simulation time: 01 hr 24 min 56 sec)
Heartbeat CPU 7 instructions: 80000003 cycles: 20011954 heartbeat IPC: 4 cumulative IPC: 3.998 (Simulation time: 01 hr 24 min 56 sec)
Heartbeat CPU 2 instructions: 80000006 cycles: 20014460 heartbeat IPC: 4 cumulative IPC: 3.997 (Simulation time: 01 hr 24 min 57 sec)
*** Reached end of trace: (1, "traces/ocean_8t/ocean1.champsimtrace")
Heartbeat CPU 0 instructions: 10000000 cycles: 20918380 heartbeat IPC: 0.478 cumulative IPC: 0.478 (Simulation time: 01 hr 28 min 51 sec)
Heartbeat CPU 4 instructions: 90000006 cycles: 22511533 heartbeat IPC: 4 cumulative IPC: 3.998 (Simulation time: 01 hr 35 min 31 sec)
Heartbeat CPU 3 instructions: 90000004 cycles: 22511607 heartbeat IPC: 4 cumulative IPC: 3.998 (Simulation time: 01 hr 35 min 31 sec)
Heartbeat CPU 5 instructions: 90000009 cycles: 22511619 heartbeat IPC: 4 cumulative IPC: 3.998 (Simulation time: 01 hr 35 min 31 sec)
Heartbeat CPU 6 instructions: 90000003 cycles: 22511821 heartbeat IPC: 4 cumulative IPC: 3.998 (Simulation time: 01 hr 35 min 31 sec)
Heartbeat CPU 7 instructions: 90000003 cycles: 22511954 heartbeat IPC: 4 cumulative IPC: 3.998 (Simulation time: 01 hr 35 min 31 sec)
Heartbeat CPU 2 instructions: 90000006 cycles: 22514460 heartbeat IPC: 4 cumulative IPC: 3.997 (Simulation time: 01 hr 35 min 32 sec)
*** Reached end of trace: (2, "traces/ocean_8t/ocean2.champsimtrace")
*** Reached end of trace: (5, "traces/ocean_8t/ocean5.champsimtrace")
*** Reached end of trace: (4, "traces/ocean_8t/ocean4.champsimtrace")
*** Reached end of trace: (6, "traces/ocean_8t/ocean6.champsimtrace")
*** Reached end of trace: (3, "traces/ocean_8t/ocean3.champsimtrace")
Warmup finished CPU 1 instructions: 50000002 cycles: 22716927 cumulative IPC: 2.201 (Simulation time: 01 hr 36 min 23 sec)
Heartbeat CPU 1 instructions: 50000006 cycles: 22716928 heartbeat IPC: 2.59 cumulative IPC: 2.201 (Simulation time: 01 hr 36 min 23 sec)
*** Reached end of trace: (7, "traces/ocean_8t/ocean7.champsimtrace")
Heartbeat CPU 4 instructions: 100000006 cycles: 25011533 heartbeat IPC: 4 cumulative IPC: 3.998 (Simulation time: 01 hr 46 min 24 sec)
Heartbeat CPU 3 instructions: 100000004 cycles: 25011607 heartbeat IPC: 4 cumulative IPC: 3.998 (Simulation time: 01 hr 46 min 25 sec)
Heartbeat CPU 5 instructions: 100000009 cycles: 25011619 heartbeat IPC: 4 cumulative IPC: 3.998 (Simulation time: 01 hr 46 min 25 sec)
Heartbeat CPU 6 instructions: 100000003 cycles: 25011821 heartbeat IPC: 4 cumulative IPC: 3.998 (Simulation time: 01 hr 46 min 25 sec)
Heartbeat CPU 7 instructions: 100000003 cycles: 25011954 heartbeat IPC: 4 cumulative IPC: 3.998 (Simulation time: 01 hr 46 min 25 sec)
Heartbeat CPU 2 instructions: 100000006 cycles: 25014460 heartbeat IPC: 4 cumulative IPC: 3.998 (Simulation time: 01 hr 46 min 25 sec)
Heartbeat CPU 1 instructions: 60000009 cycles: 26808859 heartbeat IPC: 2.444 cumulative IPC: 2.238 (Simulation time: 01 hr 53 min 47 sec)
Heartbeat CPU 4 instructions: 110000006 cycles: 27511533 heartbeat IPC: 4 cumulative IPC: 3.998 (Simulation time: 01 hr 56 min 37 sec)
Heartbeat CPU 3 instructions: 110000004 cycles: 27511607 heartbeat IPC: 4 cumulative IPC: 3.998 (Simulation time: 01 hr 56 min 37 sec)
Heartbeat CPU 5 instructions: 110000009 cycles: 27511619 heartbeat IPC: 4 cumulative IPC: 3.998 (Simulation time: 01 hr 56 min 37 sec)
Heartbeat CPU 6 instructions: 110000003 cycles: 27511821 heartbeat IPC: 4 cumulative IPC: 3.998 (Simulation time: 01 hr 56 min 37 sec)
Heartbeat CPU 7 instructions: 110000003 cycles: 27511954 heartbeat IPC: 4 cumulative IPC: 3.998 (Simulation time: 01 hr 56 min 37 sec)
Heartbeat CPU 2 instructions: 110000006 cycles: 27514460 heartbeat IPC: 4 cumulative IPC: 3.998 (Simulation time: 01 hr 56 min 37 sec)
Heartbeat CPU 4 instructions: 120000006 cycles: 30011533 heartbeat IPC: 4 cumulative IPC: 3.998 (Simulation time: 02 hr 06 min 31 sec)
Heartbeat CPU 3 instructions: 120000004 cycles: 30011607 heartbeat IPC: 4 cumulative IPC: 3.998 (Simulation time: 02 hr 06 min 31 sec)
Heartbeat CPU 5 instructions: 120000009 cycles: 30011619 heartbeat IPC: 4 cumulative IPC: 3.998 (Simulation time: 02 hr 06 min 31 sec)
Heartbeat CPU 6 instructions: 120000003 cycles: 30011821 heartbeat IPC: 4 cumulative IPC: 3.998 (Simulation time: 02 hr 06 min 31 sec)
Heartbeat CPU 7 instructions: 120000003 cycles: 30011954 heartbeat IPC: 4 cumulative IPC: 3.998 (Simulation time: 02 hr 06 min 31 sec)
Heartbeat CPU 2 instructions: 120000006 cycles: 30014460 heartbeat IPC: 4 cumulative IPC: 3.998 (Simulation time: 02 hr 06 min 32 sec)
Heartbeat CPU 1 instructions: 70000009 cycles: 30979197 heartbeat IPC: 2.398 cumulative IPC: 2.26 (Simulation time: 02 hr 10 min 21 sec)
Heartbeat CPU 4 instructions: 130000006 cycles: 32511533 heartbeat IPC: 4 cumulative IPC: 3.999 (Simulation time: 02 hr 16 min 24 sec)
Heartbeat CPU 3 instructions: 130000004 cycles: 32511607 heartbeat IPC: 4 cumulative IPC: 3.999 (Simulation time: 02 hr 16 min 24 sec)
Heartbeat CPU 5 instructions: 130000009 cycles: 32511619 heartbeat IPC: 4 cumulative IPC: 3.999 (Simulation time: 02 hr 16 min 24 sec)
Heartbeat CPU 6 instructions: 130000003 cycles: 32511821 heartbeat IPC: 4 cumulative IPC: 3.999 (Simulation time: 02 hr 16 min 24 sec)
Heartbeat CPU 7 instructions: 130000003 cycles: 32511954 heartbeat IPC: 4 cumulative IPC: 3.999 (Simulation time: 02 hr 16 min 24 sec)
Heartbeat CPU 2 instructions: 130000006 cycles: 32514460 heartbeat IPC: 4 cumulative IPC: 3.998 (Simulation time: 02 hr 16 min 24 sec)
*** Reached end of trace: (2, "traces/ocean_8t/ocean2.champsimtrace")
*** Reached end of trace: (5, "traces/ocean_8t/ocean5.champsimtrace")
*** Reached end of trace: (4, "traces/ocean_8t/ocean4.champsimtrace")
*** Reached end of trace: (6, "traces/ocean_8t/ocean6.champsimtrace")
*** Reached end of trace: (3, "traces/ocean_8t/ocean3.champsimtrace")
*** Reached end of trace: (7, "traces/ocean_8t/ocean7.champsimtrace")
Heartbeat CPU 4 instructions: 140000006 cycles: 35011533 heartbeat IPC: 4 cumulative IPC: 3.999 (Simulation time: 02 hr 26 min 14 sec)
Heartbeat CPU 3 instructions: 140000004 cycles: 35011607 heartbeat IPC: 4 cumulative IPC: 3.999 (Simulation time: 02 hr 26 min 14 sec)
Heartbeat CPU 5 instructions: 140000009 cycles: 35011619 heartbeat IPC: 4 cumulative IPC: 3.999 (Simulation time: 02 hr 26 min 14 sec)
Heartbeat CPU 6 instructions: 140000003 cycles: 35011821 heartbeat IPC: 4 cumulative IPC: 3.999 (Simulation time: 02 hr 26 min 14 sec)
Heartbeat CPU 7 instructions: 140000003 cycles: 35011954 heartbeat IPC: 4 cumulative IPC: 3.999 (Simulation time: 02 hr 26 min 14 sec)
Heartbeat CPU 2 instructions: 140000006 cycles: 35014460 heartbeat IPC: 4 cumulative IPC: 3.998 (Simulation time: 02 hr 26 min 15 sec)
Heartbeat CPU 1 instructions: 80000009 cycles: 36541014 heartbeat IPC: 1.798 cumulative IPC: 2.189 (Simulation time: 02 hr 32 min 24 sec)
Heartbeat CPU 4 instructions: 150000006 cycles: 37511533 heartbeat IPC: 4 cumulative IPC: 3.999 (Simulation time: 02 hr 36 min 16 sec)
Heartbeat CPU 3 instructions: 150000004 cycles: 37511607 heartbeat IPC: 4 cumulative IPC: 3.999 (Simulation time: 02 hr 36 min 17 sec)
Heartbeat CPU 5 instructions: 150000009 cycles: 37511619 heartbeat IPC: 4 cumulative IPC: 3.999 (Simulation time: 02 hr 36 min 17 sec)
Heartbeat CPU 6 instructions: 150000003 cycles: 37511821 heartbeat IPC: 4 cumulative IPC: 3.999 (Simulation time: 02 hr 36 min 17 sec)
Heartbeat CPU 7 instructions: 150000003 cycles: 37511954 heartbeat IPC: 4 cumulative IPC: 3.999 (Simulation time: 02 hr 36 min 17 sec)
Heartbeat CPU 2 instructions: 150000006 cycles: 37514460 heartbeat IPC: 4 cumulative IPC: 3.998 (Simulation time: 02 hr 36 min 17 sec)
Heartbeat CPU 1 instructions: 90000010 cycles: 39967554 heartbeat IPC: 2.918 cumulative IPC: 2.252 (Simulation time: 02 hr 46 min 14 sec)
Heartbeat CPU 4 instructions: 160000006 cycles: 40011533 heartbeat IPC: 4 cumulative IPC: 3.999 (Simulation time: 02 hr 46 min 25 sec)
Heartbeat CPU 3 instructions: 160000004 cycles: 40011607 heartbeat IPC: 4 cumulative IPC: 3.999 (Simulation time: 02 hr 46 min 25 sec)
Heartbeat CPU 5 instructions: 160000009 cycles: 40011619 heartbeat IPC: 4 cumulative IPC: 3.999 (Simulation time: 02 hr 46 min 25 sec)
Heartbeat CPU 6 instructions: 160000003 cycles: 40011821 heartbeat IPC: 4 cumulative IPC: 3.999 (Simulation time: 02 hr 46 min 25 sec)
Heartbeat CPU 7 instructions: 160000003 cycles: 40011954 heartbeat IPC: 4 cumulative IPC: 3.999 (Simulation time: 02 hr 46 min 25 sec)
Heartbeat CPU 2 instructions: 160000006 cycles: 40014460 heartbeat IPC: 4 cumulative IPC: 3.999 (Simulation time: 02 hr 46 min 25 sec)
*** Reached end of trace: (1, "traces/ocean_8t/ocean1.champsimtrace")
Heartbeat CPU 0 instructions: 20000001 cycles: 42270637 heartbeat IPC: 0.4683 cumulative IPC: 0.4731 (Simulation time: 02 hr 55 min 32 sec)
Heartbeat CPU 4 instructions: 170000006 cycles: 42511533 heartbeat IPC: 4 cumulative IPC: 3.999 (Simulation time: 02 hr 56 min 34 sec)
Heartbeat CPU 3 instructions: 170000004 cycles: 42511607 heartbeat IPC: 4 cumulative IPC: 3.999 (Simulation time: 02 hr 56 min 34 sec)
Heartbeat CPU 5 instructions: 170000009 cycles: 42511619 heartbeat IPC: 4 cumulative IPC: 3.999 (Simulation time: 02 hr 56 min 34 sec)
Heartbeat CPU 6 instructions: 170000003 cycles: 42511821 heartbeat IPC: 4 cumulative IPC: 3.999 (Simulation time: 02 hr 56 min 34 sec)
Heartbeat CPU 7 instructions: 170000003 cycles: 42511954 heartbeat IPC: 4 cumulative IPC: 3.999 (Simulation time: 02 hr 56 min 34 sec)
Heartbeat CPU 2 instructions: 170000006 cycles: 42514460 heartbeat IPC: 4 cumulative IPC: 3.999 (Simulation time: 02 hr 56 min 35 sec)
Heartbeat CPU 1 instructions: 100000013 cycles: 44042395 heartbeat IPC: 2.454 cumulative IPC: 2.271 (Simulation time: 03 hr 02 min 45 sec)
Heartbeat CPU 4 instructions: 180000006 cycles: 45011533 heartbeat IPC: 4 cumulative IPC: 3.999 (Simulation time: 03 hr 06 min 47 sec)
Heartbeat CPU 3 instructions: 180000004 cycles: 45011607 heartbeat IPC: 4 cumulative IPC: 3.999 (Simulation time: 03 hr 06 min 47 sec)
Heartbeat CPU 5 instructions: 180000009 cycles: 45011619 heartbeat IPC: 4 cumulative IPC: 3.999 (Simulation time: 03 hr 06 min 47 sec)
Heartbeat CPU 6 instructions: 180000003 cycles: 45011821 heartbeat IPC: 4 cumulative IPC: 3.999 (Simulation time: 03 hr 06 min 47 sec)
Heartbeat CPU 7 instructions: 180000003 cycles: 45011954 heartbeat IPC: 4 cumulative IPC: 3.999 (Simulation time: 03 hr 06 min 47 sec)
Heartbeat CPU 2 instructions: 180000006 cycles: 45014460 heartbeat IPC: 4 cumulative IPC: 3.999 (Simulation time: 03 hr 06 min 47 sec)
*** Reached end of trace: (2, "traces/ocean_8t/ocean2.champsimtrace")
*** Reached end of trace: (5, "traces/ocean_8t/ocean5.champsimtrace")
*** Reached end of trace: (4, "traces/ocean_8t/ocean4.champsimtrace")
*** Reached end of trace: (6, "traces/ocean_8t/ocean6.champsimtrace")
*** Reached end of trace: (3, "traces/ocean_8t/ocean3.champsimtrace")
*** Reached end of trace: (7, "traces/ocean_8t/ocean7.champsimtrace")
Heartbeat CPU 4 instructions: 190000006 cycles: 47511533 heartbeat IPC: 4 cumulative IPC: 3.999 (Simulation time: 03 hr 16 min 57 sec)
Heartbeat CPU 3 instructions: 190000004 cycles: 47511607 heartbeat IPC: 4 cumulative IPC: 3.999 (Simulation time: 03 hr 16 min 57 sec)
Heartbeat CPU 5 instructions: 190000009 cycles: 47511619 heartbeat IPC: 4 cumulative IPC: 3.999 (Simulation time: 03 hr 16 min 57 sec)
Heartbeat CPU 6 instructions: 190000003 cycles: 47511821 heartbeat IPC: 4 cumulative IPC: 3.999 (Simulation time: 03 hr 16 min 57 sec)
Heartbeat CPU 7 instructions: 190000003 cycles: 47511954 heartbeat IPC: 4 cumulative IPC: 3.999 (Simulation time: 03 hr 16 min 57 sec)
Heartbeat CPU 2 instructions: 190000006 cycles: 47514460 heartbeat IPC: 4 cumulative IPC: 3.999 (Simulation time: 03 hr 16 min 58 sec)
Heartbeat CPU 1 instructions: 110000014 cycles: 48141101 heartbeat IPC: 2.44 cumulative IPC: 2.285 (Simulation time: 03 hr 19 min 32 sec)
Heartbeat CPU 4 instructions: 200000006 cycles: 50011533 heartbeat IPC: 4 cumulative IPC: 3.999 (Simulation time: 03 hr 27 min 07 sec)
Heartbeat CPU 3 instructions: 200000004 cycles: 50011607 heartbeat IPC: 4 cumulative IPC: 3.999 (Simulation time: 03 hr 27 min 07 sec)
Heartbeat CPU 5 instructions: 200000009 cycles: 50011619 heartbeat IPC: 4 cumulative IPC: 3.999 (Simulation time: 03 hr 27 min 07 sec)
Heartbeat CPU 6 instructions: 200000003 cycles: 50011821 heartbeat IPC: 4 cumulative IPC: 3.999 (Simulation time: 03 hr 27 min 07 sec)
Heartbeat CPU 7 instructions: 200000003 cycles: 50011954 heartbeat IPC: 4 cumulative IPC: 3.999 (Simulation time: 03 hr 27 min 07 sec)
Heartbeat CPU 2 instructions: 200000006 cycles: 50014460 heartbeat IPC: 4 cumulative IPC: 3.999 (Simulation time: 03 hr 27 min 08 sec)
Heartbeat CPU 4 instructions: 210000006 cycles: 52511533 heartbeat IPC: 4 cumulative IPC: 3.999 (Simulation time: 03 hr 36 min 56 sec)
Heartbeat CPU 3 instructions: 210000004 cycles: 52511607 heartbeat IPC: 4 cumulative IPC: 3.999 (Simulation time: 03 hr 36 min 56 sec)
Heartbeat CPU 5 instructions: 210000009 cycles: 52511619 heartbeat IPC: 4 cumulative IPC: 3.999 (Simulation time: 03 hr 36 min 56 sec)
Heartbeat CPU 6 instructions: 210000003 cycles: 52511821 heartbeat IPC: 4 cumulative IPC: 3.999 (Simulation time: 03 hr 36 min 56 sec)
Heartbeat CPU 7 instructions: 210000003 cycles: 52511954 heartbeat IPC: 4 cumulative IPC: 3.999 (Simulation time: 03 hr 36 min 56 sec)
Heartbeat CPU 2 instructions: 210000006 cycles: 52514460 heartbeat IPC: 4 cumulative IPC: 3.999 (Simulation time: 03 hr 36 min 57 sec)
Heartbeat CPU 1 instructions: 120000014 cycles: 53074076 heartbeat IPC: 2.027 cumulative IPC: 2.261 (Simulation time: 03 hr 39 min 06 sec)
Heartbeat CPU 4 instructions: 220000006 cycles: 55011533 heartbeat IPC: 4 cumulative IPC: 3.999 (Simulation time: 03 hr 46 min 34 sec)
Heartbeat CPU 3 instructions: 220000004 cycles: 55011607 heartbeat IPC: 4 cumulative IPC: 3.999 (Simulation time: 03 hr 46 min 34 sec)
Heartbeat CPU 5 instructions: 220000009 cycles: 55011619 heartbeat IPC: 4 cumulative IPC: 3.999 (Simulation time: 03 hr 46 min 34 sec)
Heartbeat CPU 6 instructions: 220000003 cycles: 55011821 heartbeat IPC: 4 cumulative IPC: 3.999 (Simulation time: 03 hr 46 min 34 sec)
Heartbeat CPU 7 instructions: 220000003 cycles: 55011954 heartbeat IPC: 4 cumulative IPC: 3.999 (Simulation time: 03 hr 46 min 34 sec)
Heartbeat CPU 2 instructions: 220000006 cycles: 55014460 heartbeat IPC: 4 cumulative IPC: 3.999 (Simulation time: 03 hr 46 min 35 sec)
*** Reached end of trace: (2, "traces/ocean_8t/ocean2.champsimtrace")
*** Reached end of trace: (5, "traces/ocean_8t/ocean5.champsimtrace")
*** Reached end of trace: (4, "traces/ocean_8t/ocean4.champsimtrace")
*** Reached end of trace: (6, "traces/ocean_8t/ocean6.champsimtrace")
*** Reached end of trace: (3, "traces/ocean_8t/ocean3.champsimtrace")
*** Reached end of trace: (7, "traces/ocean_8t/ocean7.champsimtrace")
Heartbeat CPU 4 instructions: 230000006 cycles: 57511533 heartbeat IPC: 4 cumulative IPC: 3.999 (Simulation time: 03 hr 56 min 22 sec)
Heartbeat CPU 3 instructions: 230000004 cycles: 57511607 heartbeat IPC: 4 cumulative IPC: 3.999 (Simulation time: 03 hr 56 min 22 sec)
Heartbeat CPU 5 instructions: 230000009 cycles: 57511619 heartbeat IPC: 4 cumulative IPC: 3.999 (Simulation time: 03 hr 56 min 22 sec)
Heartbeat CPU 6 instructions: 230000003 cycles: 57511821 heartbeat IPC: 4 cumulative IPC: 3.999 (Simulation time: 03 hr 56 min 22 sec)
Heartbeat CPU 7 instructions: 230000003 cycles: 57511954 heartbeat IPC: 4 cumulative IPC: 3.999 (Simulation time: 03 hr 56 min 22 sec)
Heartbeat CPU 2 instructions: 230000006 cycles: 57514460 heartbeat IPC: 4 cumulative IPC: 3.999 (Simulation time: 03 hr 56 min 23 sec)
Heartbeat CPU 1 instructions: 130000015 cycles: 57560431 heartbeat IPC: 2.229 cumulative IPC: 2.258 (Simulation time: 03 hr 56 min 34 sec)
*** Reached end of trace: (1, "traces/ocean_8t/ocean1.champsimtrace")
Heartbeat CPU 4 instructions: 240000006 cycles: 60011533 heartbeat IPC: 4 cumulative IPC: 3.999 (Simulation time: 04 hr 06 min 05 sec)
Heartbeat CPU 3 instructions: 240000004 cycles: 60011607 heartbeat IPC: 4 cumulative IPC: 3.999 (Simulation time: 04 hr 06 min 05 sec)
Heartbeat CPU 5 instructions: 240000009 cycles: 60011619 heartbeat IPC: 4 cumulative IPC: 3.999 (Simulation time: 04 hr 06 min 05 sec)
Heartbeat CPU 6 instructions: 240000003 cycles: 60011821 heartbeat IPC: 4 cumulative IPC: 3.999 (Simulation time: 04 hr 06 min 05 sec)
Heartbeat CPU 7 instructions: 240000003 cycles: 60011954 heartbeat IPC: 4 cumulative IPC: 3.999 (Simulation time: 04 hr 06 min 05 sec)
Heartbeat CPU 2 instructions: 240000006 cycles: 60014460 heartbeat IPC: 4 cumulative IPC: 3.999 (Simulation time: 04 hr 06 min 06 sec)
Heartbeat CPU 1 instructions: 140000015 cycles: 61282690 heartbeat IPC: 2.687 cumulative IPC: 2.284 (Simulation time: 04 hr 11 min 00 sec)
Heartbeat CPU 0 instructions: 30000005 cycles: 62424112 heartbeat IPC: 0.4962 cumulative IPC: 0.4806 (Simulation time: 04 hr 15 min 24 sec)
Heartbeat CPU 4 instructions: 250000006 cycles: 62511533 heartbeat IPC: 4 cumulative IPC: 3.999 (Simulation time: 04 hr 15 min 45 sec)
Heartbeat CPU 3 instructions: 250000004 cycles: 62511607 heartbeat IPC: 4 cumulative IPC: 3.999 (Simulation time: 04 hr 15 min 45 sec)
Heartbeat CPU 5 instructions: 250000009 cycles: 62511619 heartbeat IPC: 4 cumulative IPC: 3.999 (Simulation time: 04 hr 15 min 45 sec)
Heartbeat CPU 6 instructions: 250000003 cycles: 62511821 heartbeat IPC: 4 cumulative IPC: 3.999 (Simulation time: 04 hr 15 min 45 sec)
Heartbeat CPU 7 instructions: 250000003 cycles: 62511954 heartbeat IPC: 4 cumulative IPC: 3.999 (Simulation time: 04 hr 15 min 45 sec)
Heartbeat CPU 2 instructions: 250000006 cycles: 62514460 heartbeat IPC: 4 cumulative IPC: 3.999 (Simulation time: 04 hr 15 min 45 sec)
Heartbeat CPU 4 instructions: 260000006 cycles: 65011533 heartbeat IPC: 4 cumulative IPC: 3.999 (Simulation time: 04 hr 25 min 23 sec)
Heartbeat CPU 3 instructions: 260000004 cycles: 65011607 heartbeat IPC: 4 cumulative IPC: 3.999 (Simulation time: 04 hr 25 min 23 sec)
Heartbeat CPU 5 instructions: 260000009 cycles: 65011619 heartbeat IPC: 4 cumulative IPC: 3.999 (Simulation time: 04 hr 25 min 23 sec)
Heartbeat CPU 6 instructions: 260000003 cycles: 65011821 heartbeat IPC: 4 cumulative IPC: 3.999 (Simulation time: 04 hr 25 min 23 sec)
Heartbeat CPU 7 instructions: 260000003 cycles: 65011954 heartbeat IPC: 4 cumulative IPC: 3.999 (Simulation time: 04 hr 25 min 23 sec)
Heartbeat CPU 2 instructions: 260000006 cycles: 65014460 heartbeat IPC: 4 cumulative IPC: 3.999 (Simulation time: 04 hr 25 min 24 sec)
Heartbeat CPU 1 instructions: 150000015 cycles: 65475573 heartbeat IPC: 2.385 cumulative IPC: 2.291 (Simulation time: 04 hr 27 min 11 sec)
Heartbeat CPU 4 instructions: 270000006 cycles: 67511533 heartbeat IPC: 4 cumulative IPC: 3.999 (Simulation time: 04 hr 34 min 59 sec)
Heartbeat CPU 3 instructions: 270000004 cycles: 67511607 heartbeat IPC: 4 cumulative IPC: 3.999 (Simulation time: 04 hr 34 min 59 sec)
Heartbeat CPU 5 instructions: 270000009 cycles: 67511619 heartbeat IPC: 4 cumulative IPC: 3.999 (Simulation time: 04 hr 34 min 59 sec)
Heartbeat CPU 6 instructions: 270000003 cycles: 67511821 heartbeat IPC: 4 cumulative IPC: 3.999 (Simulation time: 04 hr 34 min 59 sec)
Heartbeat CPU 7 instructions: 270000003 cycles: 67511954 heartbeat IPC: 4 cumulative IPC: 3.999 (Simulation time: 04 hr 34 min 59 sec)
Heartbeat CPU 2 instructions: 270000006 cycles: 67514460 heartbeat IPC: 4 cumulative IPC: 3.999 (Simulation time: 04 hr 35 min 00 sec)
*** Reached end of trace: (2, "traces/ocean_8t/ocean2.champsimtrace")
*** Reached end of trace: (5, "traces/ocean_8t/ocean5.champsimtrace")
*** Reached end of trace: (4, "traces/ocean_8t/ocean4.champsimtrace")
*** Reached end of trace: (6, "traces/ocean_8t/ocean6.champsimtrace")
*** Reached end of trace: (3, "traces/ocean_8t/ocean3.champsimtrace")
*** Reached end of trace: (7, "traces/ocean_8t/ocean7.champsimtrace")
Heartbeat CPU 1 instructions: 160000018 cycles: 69595923 heartbeat IPC: 2.427 cumulative IPC: 2.299 (Simulation time: 04 hr 43 min 02 sec)
Heartbeat CPU 4 instructions: 280000006 cycles: 70011533 heartbeat IPC: 4 cumulative IPC: 3.999 (Simulation time: 04 hr 44 min 38 sec)
Heartbeat CPU 3 instructions: 280000004 cycles: 70011607 heartbeat IPC: 4 cumulative IPC: 3.999 (Simulation time: 04 hr 44 min 38 sec)
Heartbeat CPU 5 instructions: 280000009 cycles: 70011619 heartbeat IPC: 4 cumulative IPC: 3.999 (Simulation time: 04 hr 44 min 38 sec)
Heartbeat CPU 6 instructions: 280000003 cycles: 70011821 heartbeat IPC: 4 cumulative IPC: 3.999 (Simulation time: 04 hr 44 min 38 sec)
Heartbeat CPU 7 instructions: 280000003 cycles: 70011954 heartbeat IPC: 4 cumulative IPC: 3.999 (Simulation time: 04 hr 44 min 38 sec)
Heartbeat CPU 2 instructions: 280000006 cycles: 70014460 heartbeat IPC: 4 cumulative IPC: 3.999 (Simulation time: 04 hr 44 min 39 sec)
Heartbeat CPU 4 instructions: 290000006 cycles: 72511533 heartbeat IPC: 4 cumulative IPC: 3.999 (Simulation time: 04 hr 54 min 20 sec)
Heartbeat CPU 3 instructions: 290000004 cycles: 72511607 heartbeat IPC: 4 cumulative IPC: 3.999 (Simulation time: 04 hr 54 min 20 sec)
Heartbeat CPU 5 instructions: 290000009 cycles: 72511619 heartbeat IPC: 4 cumulative IPC: 3.999 (Simulation time: 04 hr 54 min 20 sec)
Heartbeat CPU 6 instructions: 290000003 cycles: 72511821 heartbeat IPC: 4 cumulative IPC: 3.999 (Simulation time: 04 hr 54 min 20 sec)
Heartbeat CPU 7 instructions: 290000003 cycles: 72511954 heartbeat IPC: 4 cumulative IPC: 3.999 (Simulation time: 04 hr 54 min 20 sec)
Heartbeat CPU 2 instructions: 290000006 cycles: 72514460 heartbeat IPC: 4 cumulative IPC: 3.999 (Simulation time: 04 hr 54 min 20 sec)
Heartbeat CPU 4 instructions: 300000006 cycles: 75011533 heartbeat IPC: 4 cumulative IPC: 3.999 (Simulation time: 05 hr 04 min 18 sec)
Heartbeat CPU 3 instructions: 300000004 cycles: 75011607 heartbeat IPC: 4 cumulative IPC: 3.999 (Simulation time: 05 hr 04 min 18 sec)
Heartbeat CPU 5 instructions: 300000009 cycles: 75011619 heartbeat IPC: 4 cumulative IPC: 3.999 (Simulation time: 05 hr 04 min 18 sec)
Heartbeat CPU 6 instructions: 300000003 cycles: 75011821 heartbeat IPC: 4 cumulative IPC: 3.999 (Simulation time: 05 hr 04 min 18 sec)
Heartbeat CPU 7 instructions: 300000003 cycles: 75011954 heartbeat IPC: 4 cumulative IPC: 3.999 (Simulation time: 05 hr 04 min 19 sec)
Heartbeat CPU 2 instructions: 300000006 cycles: 75014460 heartbeat IPC: 4 cumulative IPC: 3.999 (Simulation time: 05 hr 04 min 19 sec)
Heartbeat CPU 1 instructions: 170000018 cycles: 75172633 heartbeat IPC: 1.793 cumulative IPC: 2.261 (Simulation time: 05 hr 04 min 58 sec)
Heartbeat CPU 4 instructions: 310000006 cycles: 77511533 heartbeat IPC: 4 cumulative IPC: 3.999 (Simulation time: 05 hr 14 min 24 sec)
Heartbeat CPU 3 instructions: 310000004 cycles: 77511607 heartbeat IPC: 4 cumulative IPC: 3.999 (Simulation time: 05 hr 14 min 24 sec)
Heartbeat CPU 5 instructions: 310000009 cycles: 77511619 heartbeat IPC: 4 cumulative IPC: 3.999 (Simulation time: 05 hr 14 min 24 sec)
Heartbeat CPU 6 instructions: 310000003 cycles: 77511821 heartbeat IPC: 4 cumulative IPC: 3.999 (Simulation time: 05 hr 14 min 24 sec)
Heartbeat CPU 7 instructions: 310000003 cycles: 77511954 heartbeat IPC: 4 cumulative IPC: 3.999 (Simulation time: 05 hr 14 min 24 sec)
Heartbeat CPU 2 instructions: 310000006 cycles: 77514460 heartbeat IPC: 4 cumulative IPC: 3.999 (Simulation time: 05 hr 14 min 25 sec)
Heartbeat CPU 1 instructions: 180000021 cycles: 78718990 heartbeat IPC: 2.82 cumulative IPC: 2.287 (Simulation time: 05 hr 19 min 17 sec)
*** Reached end of trace: (2, "traces/ocean_8t/ocean2.champsimtrace")
*** Reached end of trace: (5, "traces/ocean_8t/ocean5.champsimtrace")
*** Reached end of trace: (4, "traces/ocean_8t/ocean4.champsimtrace")
*** Reached end of trace: (6, "traces/ocean_8t/ocean6.champsimtrace")
*** Reached end of trace: (1, "traces/ocean_8t/ocean1.champsimtrace")
*** Reached end of trace: (3, "traces/ocean_8t/ocean3.champsimtrace")
*** Reached end of trace: (7, "traces/ocean_8t/ocean7.champsimtrace")
Heartbeat CPU 4 instructions: 320000006 cycles: 80011533 heartbeat IPC: 4 cumulative IPC: 3.999 (Simulation time: 05 hr 24 min 29 sec)
Heartbeat CPU 3 instructions: 320000004 cycles: 80011607 heartbeat IPC: 4 cumulative IPC: 3.999 (Simulation time: 05 hr 24 min 29 sec)
Heartbeat CPU 5 instructions: 320000009 cycles: 80011619 heartbeat IPC: 4 cumulative IPC: 3.999 (Simulation time: 05 hr 24 min 29 sec)
Heartbeat CPU 6 instructions: 320000003 cycles: 80011821 heartbeat IPC: 4 cumulative IPC: 3.999 (Simulation time: 05 hr 24 min 29 sec)
Heartbeat CPU 7 instructions: 320000003 cycles: 80011954 heartbeat IPC: 4 cumulative IPC: 3.999 (Simulation time: 05 hr 24 min 29 sec)
Heartbeat CPU 2 instructions: 320000006 cycles: 80014460 heartbeat IPC: 4 cumulative IPC: 3.999 (Simulation time: 05 hr 24 min 29 sec)
Heartbeat CPU 4 instructions: 330000006 cycles: 82511533 heartbeat IPC: 4 cumulative IPC: 3.999 (Simulation time: 05 hr 34 min 26 sec)
Heartbeat CPU 3 instructions: 330000004 cycles: 82511607 heartbeat IPC: 4 cumulative IPC: 3.999 (Simulation time: 05 hr 34 min 26 sec)
Heartbeat CPU 5 instructions: 330000009 cycles: 82511619 heartbeat IPC: 4 cumulative IPC: 3.999 (Simulation time: 05 hr 34 min 26 sec)
Heartbeat CPU 6 instructions: 330000003 cycles: 82511821 heartbeat IPC: 4 cumulative IPC: 3.999 (Simulation time: 05 hr 34 min 26 sec)
Heartbeat CPU 7 instructions: 330000003 cycles: 82511954 heartbeat IPC: 4 cumulative IPC: 3.999 (Simulation time: 05 hr 34 min 26 sec)
Heartbeat CPU 2 instructions: 330000006 cycles: 82514460 heartbeat IPC: 4 cumulative IPC: 3.999 (Simulation time: 05 hr 34 min 26 sec)
Heartbeat CPU 1 instructions: 190000024 cycles: 82711051 heartbeat IPC: 2.505 cumulative IPC: 2.297 (Simulation time: 05 hr 35 min 14 sec)
Heartbeat CPU 0 instructions: 40000005 cycles: 84925832 heartbeat IPC: 0.4444 cumulative IPC: 0.471 (Simulation time: 05 hr 44 min 04 sec)
Heartbeat CPU 4 instructions: 340000006 cycles: 85011533 heartbeat IPC: 4 cumulative IPC: 3.999 (Simulation time: 05 hr 44 min 24 sec)
Heartbeat CPU 3 instructions: 340000004 cycles: 85011607 heartbeat IPC: 4 cumulative IPC: 3.999 (Simulation time: 05 hr 44 min 24 sec)
Heartbeat CPU 5 instructions: 340000009 cycles: 85011619 heartbeat IPC: 4 cumulative IPC: 3.999 (Simulation time: 05 hr 44 min 24 sec)
Heartbeat CPU 6 instructions: 340000003 cycles: 85011821 heartbeat IPC: 4 cumulative IPC: 3.999 (Simulation time: 05 hr 44 min 24 sec)
Heartbeat CPU 7 instructions: 340000003 cycles: 85011954 heartbeat IPC: 4 cumulative IPC: 3.999 (Simulation time: 05 hr 44 min 24 sec)
Heartbeat CPU 2 instructions: 340000006 cycles: 85014460 heartbeat IPC: 4 cumulative IPC: 3.999 (Simulation time: 05 hr 44 min 25 sec)
Heartbeat CPU 1 instructions: 200000024 cycles: 86794368 heartbeat IPC: 2.449 cumulative IPC: 2.304 (Simulation time: 05 hr 51 min 23 sec)
Heartbeat CPU 4 instructions: 350000006 cycles: 87511533 heartbeat IPC: 4 cumulative IPC: 3.999 (Simulation time: 05 hr 54 min 10 sec)
Heartbeat CPU 3 instructions: 350000004 cycles: 87511607 heartbeat IPC: 4 cumulative IPC: 3.999 (Simulation time: 05 hr 54 min 11 sec)
Heartbeat CPU 5 instructions: 350000009 cycles: 87511619 heartbeat IPC: 4 cumulative IPC: 3.999 (Simulation time: 05 hr 54 min 11 sec)
Heartbeat CPU 6 instructions: 350000003 cycles: 87511821 heartbeat IPC: 4 cumulative IPC: 3.999 (Simulation time: 05 hr 54 min 11 sec)
Heartbeat CPU 7 instructions: 350000003 cycles: 87511954 heartbeat IPC: 4 cumulative IPC: 3.999 (Simulation time: 05 hr 54 min 11 sec)
Heartbeat CPU 2 instructions: 350000006 cycles: 87514460 heartbeat IPC: 4 cumulative IPC: 3.999 (Simulation time: 05 hr 54 min 11 sec)
Heartbeat CPU 4 instructions: 360000006 cycles: 90011533 heartbeat IPC: 4 cumulative IPC: 3.999 (Simulation time: 06 hr 03 min 52 sec)
Heartbeat CPU 3 instructions: 360000004 cycles: 90011607 heartbeat IPC: 4 cumulative IPC: 3.999 (Simulation time: 06 hr 03 min 52 sec)
Heartbeat CPU 5 instructions: 360000009 cycles: 90011619 heartbeat IPC: 4 cumulative IPC: 3.999 (Simulation time: 06 hr 03 min 52 sec)
Heartbeat CPU 6 instructions: 360000003 cycles: 90011821 heartbeat IPC: 4 cumulative IPC: 3.999 (Simulation time: 06 hr 03 min 52 sec)
Heartbeat CPU 7 instructions: 360000003 cycles: 90011954 heartbeat IPC: 4 cumulative IPC: 3.999 (Simulation time: 06 hr 03 min 52 sec)
Heartbeat CPU 2 instructions: 360000006 cycles: 90014460 heartbeat IPC: 4 cumulative IPC: 3.999 (Simulation time: 06 hr 03 min 53 sec)
*** Reached end of trace: (2, "traces/ocean_8t/ocean2.champsimtrace")
*** Reached end of trace: (5, "traces/ocean_8t/ocean5.champsimtrace")
*** Reached end of trace: (4, "traces/ocean_8t/ocean4.champsimtrace")
*** Reached end of trace: (6, "traces/ocean_8t/ocean6.champsimtrace")
*** Reached end of trace: (3, "traces/ocean_8t/ocean3.champsimtrace")
*** Reached end of trace: (7, "traces/ocean_8t/ocean7.champsimtrace")
Heartbeat CPU 1 instructions: 210000026 cycles: 91547852 heartbeat IPC: 2.104 cumulative IPC: 2.294 (Simulation time: 06 hr 09 min 38 sec)
Heartbeat CPU 4 instructions: 370000006 cycles: 92511533 heartbeat IPC: 4 cumulative IPC: 4 (Simulation time: 06 hr 13 min 16 sec)
Heartbeat CPU 3 instructions: 370000004 cycles: 92511607 heartbeat IPC: 4 cumulative IPC: 3.999 (Simulation time: 06 hr 13 min 16 sec)
Heartbeat CPU 5 instructions: 370000009 cycles: 92511619 heartbeat IPC: 4 cumulative IPC: 3.999 (Simulation time: 06 hr 13 min 16 sec)
Heartbeat CPU 6 instructions: 370000003 cycles: 92511821 heartbeat IPC: 4 cumulative IPC: 3.999 (Simulation time: 06 hr 13 min 16 sec)
Heartbeat CPU 7 instructions: 370000003 cycles: 92511954 heartbeat IPC: 4 cumulative IPC: 3.999 (Simulation time: 06 hr 13 min 16 sec)
Heartbeat CPU 2 instructions: 370000006 cycles: 92514460 heartbeat IPC: 4 cumulative IPC: 3.999 (Simulation time: 06 hr 13 min 17 sec)
Heartbeat CPU 4 instructions: 380000006 cycles: 95011533 heartbeat IPC: 4 cumulative IPC: 4 (Simulation time: 06 hr 22 min 38 sec)
Heartbeat CPU 3 instructions: 380000004 cycles: 95011607 heartbeat IPC: 4 cumulative IPC: 4 (Simulation time: 06 hr 22 min 38 sec)
Heartbeat CPU 5 instructions: 380000009 cycles: 95011619 heartbeat IPC: 4 cumulative IPC: 4 (Simulation time: 06 hr 22 min 38 sec)
Heartbeat CPU 6 instructions: 380000003 cycles: 95011821 heartbeat IPC: 4 cumulative IPC: 4 (Simulation time: 06 hr 22 min 38 sec)
Heartbeat CPU 7 instructions: 380000003 cycles: 95011954 heartbeat IPC: 4 cumulative IPC: 3.999 (Simulation time: 06 hr 22 min 38 sec)
Heartbeat CPU 2 instructions: 380000006 cycles: 95014460 heartbeat IPC: 4 cumulative IPC: 3.999 (Simulation time: 06 hr 22 min 39 sec)
Heartbeat CPU 1 instructions: 220000026 cycles: 96265677 heartbeat IPC: 2.12 cumulative IPC: 2.285 (Simulation time: 06 hr 27 min 17 sec)
Heartbeat CPU 4 instructions: 390000006 cycles: 97511533 heartbeat IPC: 4 cumulative IPC: 4 (Simulation time: 06 hr 31 min 55 sec)
Heartbeat CPU 3 instructions: 390000004 cycles: 97511607 heartbeat IPC: 4 cumulative IPC: 4 (Simulation time: 06 hr 31 min 55 sec)
Heartbeat CPU 5 instructions: 390000009 cycles: 97511619 heartbeat IPC: 4 cumulative IPC: 4 (Simulation time: 06 hr 31 min 55 sec)
Heartbeat CPU 6 instructions: 390000003 cycles: 97511821 heartbeat IPC: 4 cumulative IPC: 4 (Simulation time: 06 hr 31 min 55 sec)
Heartbeat CPU 7 instructions: 390000003 cycles: 97511954 heartbeat IPC: 4 cumulative IPC: 4 (Simulation time: 06 hr 31 min 55 sec)
Heartbeat CPU 2 instructions: 390000006 cycles: 97514460 heartbeat IPC: 4 cumulative IPC: 3.999 (Simulation time: 06 hr 31 min 56 sec)
*** Reached end of trace: (0, "traces/ocean_8t/ocean0.champsimtrace")
*** Reached end of trace: (1, "traces/ocean_8t/ocean1.champsimtrace")
Heartbeat CPU 1 instructions: 230000028 cycles: 99970429 heartbeat IPC: 2.699 cumulative IPC: 2.301 (Simulation time: 06 hr 41 min 20 sec)
Heartbeat CPU 4 instructions: 400000006 cycles: 100011533 heartbeat IPC: 4 cumulative IPC: 4 (Simulation time: 06 hr 41 min 29 sec)
Heartbeat CPU 3 instructions: 400000004 cycles: 100011607 heartbeat IPC: 4 cumulative IPC: 4 (Simulation time: 06 hr 41 min 29 sec)
Heartbeat CPU 5 instructions: 400000009 cycles: 100011619 heartbeat IPC: 4 cumulative IPC: 4 (Simulation time: 06 hr 41 min 29 sec)
Heartbeat CPU 6 instructions: 400000003 cycles: 100011821 heartbeat IPC: 4 cumulative IPC: 4 (Simulation time: 06 hr 41 min 29 sec)
Heartbeat CPU 7 instructions: 400000003 cycles: 100011954 heartbeat IPC: 4 cumulative IPC: 4 (Simulation time: 06 hr 41 min 29 sec)
Heartbeat CPU 2 instructions: 400000006 cycles: 100014460 heartbeat IPC: 4 cumulative IPC: 3.999 (Simulation time: 06 hr 41 min 30 sec)
*** Reached end of trace: (2, "traces/ocean_8t/ocean2.champsimtrace")
*** Reached end of trace: (5, "traces/ocean_8t/ocean5.champsimtrace")
*** Reached end of trace: (4, "traces/ocean_8t/ocean4.champsimtrace")
*** Reached end of trace: (6, "traces/ocean_8t/ocean6.champsimtrace")
*** Reached end of trace: (3, "traces/ocean_8t/ocean3.champsimtrace")
*** Reached end of trace: (7, "traces/ocean_8t/ocean7.champsimtrace")
Heartbeat CPU 4 instructions: 410000006 cycles: 102511533 heartbeat IPC: 4 cumulative IPC: 4 (Simulation time: 06 hr 50 min 55 sec)
Heartbeat CPU 3 instructions: 410000004 cycles: 102511607 heartbeat IPC: 4 cumulative IPC: 4 (Simulation time: 06 hr 50 min 55 sec)
Heartbeat CPU 5 instructions: 410000009 cycles: 102511619 heartbeat IPC: 4 cumulative IPC: 4 (Simulation time: 06 hr 50 min 55 sec)
Heartbeat CPU 6 instructions: 410000003 cycles: 102511821 heartbeat IPC: 4 cumulative IPC: 4 (Simulation time: 06 hr 50 min 55 sec)
Heartbeat CPU 7 instructions: 410000003 cycles: 102511954 heartbeat IPC: 4 cumulative IPC: 4 (Simulation time: 06 hr 50 min 55 sec)
Heartbeat CPU 2 instructions: 410000006 cycles: 102514460 heartbeat IPC: 4 cumulative IPC: 3.999 (Simulation time: 06 hr 50 min 56 sec)
Heartbeat CPU 1 instructions: 240000029 cycles: 104136978 heartbeat IPC: 2.4 cumulative IPC: 2.305 (Simulation time: 06 hr 56 min 11 sec)
Heartbeat CPU 4 instructions: 420000006 cycles: 105011533 heartbeat IPC: 4 cumulative IPC: 4 (Simulation time: 06 hr 59 min 17 sec)
Heartbeat CPU 3 instructions: 420000004 cycles: 105011607 heartbeat IPC: 4 cumulative IPC: 4 (Simulation time: 06 hr 59 min 17 sec)
Heartbeat CPU 5 instructions: 420000009 cycles: 105011619 heartbeat IPC: 4 cumulative IPC: 4 (Simulation time: 06 hr 59 min 17 sec)
Heartbeat CPU 6 instructions: 420000003 cycles: 105011821 heartbeat IPC: 4 cumulative IPC: 4 (Simulation time: 06 hr 59 min 17 sec)
Heartbeat CPU 7 instructions: 420000003 cycles: 105011954 heartbeat IPC: 4 cumulative IPC: 4 (Simulation time: 06 hr 59 min 17 sec)
Heartbeat CPU 2 instructions: 420000006 cycles: 105014460 heartbeat IPC: 4 cumulative IPC: 3.999 (Simulation time: 06 hr 59 min 18 sec)
Warmup finished CPU 0 instructions: 50000000 cycles: 106815281 cumulative IPC: 0.4681 (Simulation time: 07 hr 06 min 01 sec)
Warmup complete CPU 7 instructions: 427213311 cycles: 106815281 cumulative IPC: 4 (Simulation time: 07 hr 06 min 01 sec)
Warmup complete CPU 6 instructions: 427213843 cycles: 106815281 cumulative IPC: 4 (Simulation time: 07 hr 06 min 01 sec)
Warmup complete CPU 5 instructions: 427214657 cycles: 106815281 cumulative IPC: 4 (Simulation time: 07 hr 06 min 01 sec)
Warmup complete CPU 4 instructions: 427214998 cycles: 106815281 cumulative IPC: 4 (Simulation time: 07 hr 06 min 01 sec)
Warmup complete CPU 3 instructions: 427214700 cycles: 106815281 cumulative IPC: 4 (Simulation time: 07 hr 06 min 01 sec)
Warmup complete CPU 2 instructions: 427203290 cycles: 106815281 cumulative IPC: 3.999 (Simulation time: 07 hr 06 min 01 sec)
Warmup complete CPU 1 instructions: 246737533 cycles: 106815281 cumulative IPC: 2.31 (Simulation time: 07 hr 06 min 01 sec)
Warmup complete CPU 0 instructions: 50000000 cycles: 106815281 cumulative IPC: 0.4681 (Simulation time: 07 hr 06 min 01 sec)
Heartbeat CPU 0 instructions: 50000008 cycles: 106815477 heartbeat IPC: 0.4568 cumulative IPC: 0.04082 (Simulation time: 07 hr 06 min 01 sec)
Heartbeat CPU 4 instructions: 430000006 cycles: 107511533 heartbeat IPC: 4 cumulative IPC: 4 (Simulation time: 07 hr 08 min 42 sec)
Heartbeat CPU 3 instructions: 430000004 cycles: 107511607 heartbeat IPC: 4 cumulative IPC: 4 (Simulation time: 07 hr 08 min 42 sec)
Heartbeat CPU 5 instructions: 430000009 cycles: 107511619 heartbeat IPC: 4 cumulative IPC: 4 (Simulation time: 07 hr 08 min 42 sec)
Heartbeat CPU 6 instructions: 430000003 cycles: 107511821 heartbeat IPC: 4 cumulative IPC: 4 (Simulation time: 07 hr 08 min 42 sec)
Heartbeat CPU 7 instructions: 430000003 cycles: 107511954 heartbeat IPC: 4 cumulative IPC: 4 (Simulation time: 07 hr 08 min 43 sec)
Heartbeat CPU 2 instructions: 430000006 cycles: 107514460 heartbeat IPC: 4 cumulative IPC: 4 (Simulation time: 07 hr 08 min 43 sec)
Heartbeat CPU 4 instructions: 440000006 cycles: 110011533 heartbeat IPC: 4 cumulative IPC: 4 (Simulation time: 07 hr 18 min 15 sec)
Heartbeat CPU 3 instructions: 440000004 cycles: 110011607 heartbeat IPC: 4 cumulative IPC: 4 (Simulation time: 07 hr 18 min 15 sec)
Heartbeat CPU 5 instructions: 440000009 cycles: 110011619 heartbeat IPC: 4 cumulative IPC: 4 (Simulation time: 07 hr 18 min 16 sec)
Heartbeat CPU 6 instructions: 440000003 cycles: 110011821 heartbeat IPC: 4 cumulative IPC: 4 (Simulation time: 07 hr 18 min 16 sec)
Heartbeat CPU 7 instructions: 440000003 cycles: 110011954 heartbeat IPC: 4 cumulative IPC: 4 (Simulation time: 07 hr 18 min 16 sec)
Heartbeat CPU 2 instructions: 440000006 cycles: 110014460 heartbeat IPC: 4 cumulative IPC: 4 (Simulation time: 07 hr 18 min 16 sec)
Heartbeat CPU 4 instructions: 450000006 cycles: 112511533 heartbeat IPC: 4 cumulative IPC: 4 (Simulation time: 07 hr 27 min 51 sec)
Heartbeat CPU 3 instructions: 450000004 cycles: 112511607 heartbeat IPC: 4 cumulative IPC: 4 (Simulation time: 07 hr 27 min 51 sec)
Heartbeat CPU 5 instructions: 450000009 cycles: 112511619 heartbeat IPC: 4 cumulative IPC: 4 (Simulation time: 07 hr 27 min 51 sec)
Heartbeat CPU 6 instructions: 450000003 cycles: 112511821 heartbeat IPC: 4 cumulative IPC: 4 (Simulation time: 07 hr 27 min 51 sec)
Heartbeat CPU 7 instructions: 450000003 cycles: 112511954 heartbeat IPC: 4 cumulative IPC: 4 (Simulation time: 07 hr 27 min 51 sec)
Heartbeat CPU 2 instructions: 450000006 cycles: 112514460 heartbeat IPC: 4 cumulative IPC: 4 (Simulation time: 07 hr 27 min 52 sec)
*** Reached end of trace: (2, "traces/ocean_8t/ocean2.champsimtrace")
*** Reached end of trace: (5, "traces/ocean_8t/ocean5.champsimtrace")
*** Reached end of trace: (4, "traces/ocean_8t/ocean4.champsimtrace")
*** Reached end of trace: (6, "traces/ocean_8t/ocean6.champsimtrace")
*** Reached end of trace: (3, "traces/ocean_8t/ocean3.champsimtrace")
*** Reached end of trace: (7, "traces/ocean_8t/ocean7.champsimtrace")
Heartbeat CPU 1 instructions: 250000029 cycles: 114735816 heartbeat IPC: 0.9435 cumulative IPC: 0.4119 (Simulation time: 07 hr 36 min 36 sec)
Heartbeat CPU 4 instructions: 460000008 cycles: 115011575 heartbeat IPC: 4 cumulative IPC: 4 (Simulation time: 07 hr 37 min 39 sec)
Heartbeat CPU 3 instructions: 460000006 cycles: 115011622 heartbeat IPC: 4 cumulative IPC: 4 (Simulation time: 07 hr 37 min 39 sec)
Heartbeat CPU 5 instructions: 460000009 cycles: 115011646 heartbeat IPC: 4 cumulative IPC: 4 (Simulation time: 07 hr 37 min 39 sec)
Heartbeat CPU 6 instructions: 460000003 cycles: 115011848 heartbeat IPC: 4 cumulative IPC: 4 (Simulation time: 07 hr 37 min 39 sec)
Heartbeat CPU 7 instructions: 460000004 cycles: 115011985 heartbeat IPC: 4 cumulative IPC: 4 (Simulation time: 07 hr 37 min 39 sec)
Heartbeat CPU 2 instructions: 460000007 cycles: 115014503 heartbeat IPC: 4 cumulative IPC: 4 (Simulation time: 07 hr 37 min 39 sec)
Heartbeat CPU 4 instructions: 470000008 cycles: 117511575 heartbeat IPC: 4 cumulative IPC: 4 (Simulation time: 07 hr 46 min 57 sec)
Heartbeat CPU 3 instructions: 470000006 cycles: 117511622 heartbeat IPC: 4 cumulative IPC: 4 (Simulation time: 07 hr 46 min 57 sec)
Heartbeat CPU 5 instructions: 470000009 cycles: 117511646 heartbeat IPC: 4 cumulative IPC: 4 (Simulation time: 07 hr 46 min 57 sec)
Heartbeat CPU 6 instructions: 470000003 cycles: 117511848 heartbeat IPC: 4 cumulative IPC: 4 (Simulation time: 07 hr 46 min 57 sec)
Heartbeat CPU 7 instructions: 470000004 cycles: 117511985 heartbeat IPC: 4 cumulative IPC: 4 (Simulation time: 07 hr 46 min 57 sec)
Heartbeat CPU 2 instructions: 470000007 cycles: 117514503 heartbeat IPC: 4 cumulative IPC: 4 (Simulation time: 07 hr 46 min 58 sec)
Heartbeat CPU 4 instructions: 480000008 cycles: 120011575 heartbeat IPC: 4 cumulative IPC: 4 (Simulation time: 07 hr 56 min 03 sec)
Heartbeat CPU 3 instructions: 480000006 cycles: 120011622 heartbeat IPC: 4 cumulative IPC: 4 (Simulation time: 07 hr 56 min 03 sec)
Heartbeat CPU 5 instructions: 480000009 cycles: 120011646 heartbeat IPC: 4 cumulative IPC: 4 (Simulation time: 07 hr 56 min 03 sec)
Heartbeat CPU 6 instructions: 480000003 cycles: 120011848 heartbeat IPC: 4 cumulative IPC: 4 (Simulation time: 07 hr 56 min 03 sec)
Heartbeat CPU 7 instructions: 480000004 cycles: 120011985 heartbeat IPC: 4 cumulative IPC: 4 (Simulation time: 07 hr 56 min 03 sec)
Heartbeat CPU 2 instructions: 480000007 cycles: 120014503 heartbeat IPC: 4 cumulative IPC: 4 (Simulation time: 07 hr 56 min 03 sec)
Heartbeat CPU 4 instructions: 490000008 cycles: 122511575 heartbeat IPC: 4 cumulative IPC: 4 (Simulation time: 08 hr 05 min 20 sec)
Heartbeat CPU 3 instructions: 490000006 cycles: 122511622 heartbeat IPC: 4 cumulative IPC: 4 (Simulation time: 08 hr 05 min 20 sec)
Heartbeat CPU 5 instructions: 490000009 cycles: 122511646 heartbeat IPC: 4 cumulative IPC: 4 (Simulation time: 08 hr 05 min 20 sec)
Heartbeat CPU 6 instructions: 490000003 cycles: 122511848 heartbeat IPC: 4 cumulative IPC: 4 (Simulation time: 08 hr 05 min 20 sec)
Heartbeat CPU 7 instructions: 490000004 cycles: 122511985 heartbeat IPC: 4 cumulative IPC: 4 (Simulation time: 08 hr 05 min 20 sec)
Heartbeat CPU 2 instructions: 490000007 cycles: 122514503 heartbeat IPC: 4 cumulative IPC: 4 (Simulation time: 08 hr 05 min 21 sec)
*** Reached end of trace: (2, "traces/ocean_8t/ocean2.champsimtrace")
*** Reached end of trace: (5, "traces/ocean_8t/ocean5.champsimtrace")
*** Reached end of trace: (4, "traces/ocean_8t/ocean4.champsimtrace")
*** Reached end of trace: (6, "traces/ocean_8t/ocean6.champsimtrace")
*** Reached end of trace: (3, "traces/ocean_8t/ocean3.champsimtrace")
Heartbeat CPU 4 instructions: 500000009 cycles: 125011608 heartbeat IPC: 4 cumulative IPC: 4 (Simulation time: 08 hr 14 min 38 sec)
Heartbeat CPU 3 instructions: 500000009 cycles: 125011637 heartbeat IPC: 4 cumulative IPC: 4 (Simulation time: 08 hr 14 min 38 sec)
Heartbeat CPU 5 instructions: 500000009 cycles: 125011667 heartbeat IPC: 4 cumulative IPC: 4 (Simulation time: 08 hr 14 min 38 sec)
Heartbeat CPU 6 instructions: 500000004 cycles: 125011881 heartbeat IPC: 4 cumulative IPC: 4 (Simulation time: 08 hr 14 min 38 sec)
Heartbeat CPU 7 instructions: 500000004 cycles: 125011985 heartbeat IPC: 4 cumulative IPC: 4 (Simulation time: 08 hr 14 min 38 sec)
Heartbeat CPU 2 instructions: 500000008 cycles: 125014546 heartbeat IPC: 4 cumulative IPC: 4 (Simulation time: 08 hr 14 min 39 sec)
*** Reached end of trace: (7, "traces/ocean_8t/ocean7.champsimtrace")
Heartbeat CPU 4 instructions: 510000009 cycles: 127511608 heartbeat IPC: 4 cumulative IPC: 4 (Simulation time: 08 hr 24 min 03 sec)
Heartbeat CPU 3 instructions: 510000009 cycles: 127511637 heartbeat IPC: 4 cumulative IPC: 4 (Simulation time: 08 hr 24 min 03 sec)
Heartbeat CPU 5 instructions: 510000009 cycles: 127511667 heartbeat IPC: 4 cumulative IPC: 4 (Simulation time: 08 hr 24 min 03 sec)
Heartbeat CPU 6 instructions: 510000004 cycles: 127511881 heartbeat IPC: 4 cumulative IPC: 4 (Simulation time: 08 hr 24 min 04 sec)
Heartbeat CPU 7 instructions: 510000006 cycles: 127512017 heartbeat IPC: 4 cumulative IPC: 4 (Simulation time: 08 hr 24 min 04 sec)
Heartbeat CPU 2 instructions: 510000008 cycles: 127514546 heartbeat IPC: 4 cumulative IPC: 4 (Simulation time: 08 hr 24 min 04 sec)
Heartbeat CPU 4 instructions: 520000009 cycles: 130011608 heartbeat IPC: 4 cumulative IPC: 4 (Simulation time: 08 hr 33 min 12 sec)
Heartbeat CPU 3 instructions: 520000009 cycles: 130011637 heartbeat IPC: 4 cumulative IPC: 4 (Simulation time: 08 hr 33 min 12 sec)
Heartbeat CPU 5 instructions: 520000009 cycles: 130011667 heartbeat IPC: 4 cumulative IPC: 4 (Simulation time: 08 hr 33 min 12 sec)
Heartbeat CPU 6 instructions: 520000004 cycles: 130011881 heartbeat IPC: 4 cumulative IPC: 4 (Simulation time: 08 hr 33 min 12 sec)
Heartbeat CPU 7 instructions: 520000006 cycles: 130012017 heartbeat IPC: 4 cumulative IPC: 4 (Simulation time: 08 hr 33 min 12 sec)
Heartbeat CPU 2 instructions: 520000008 cycles: 130014546 heartbeat IPC: 4 cumulative IPC: 4 (Simulation time: 08 hr 33 min 13 sec)
Simulation finished CPU 3 instructions: 100000001 cycles: 25000029 cumulative IPC: 4 (Simulation time: 08 hr 39 min 56 sec)
Simulation finished CPU 5 instructions: 100000000 cycles: 25000048 cumulative IPC: 4 (Simulation time: 08 hr 39 min 56 sec)
Simulation finished CPU 6 instructions: 100000001 cycles: 25000060 cumulative IPC: 4 (Simulation time: 08 hr 39 min 56 sec)
Simulation finished CPU 7 instructions: 100000003 cycles: 25000063 cumulative IPC: 4 (Simulation time: 08 hr 39 min 56 sec)
Simulation finished CPU 4 instructions: 100000003 cycles: 25000075 cumulative IPC: 4 (Simulation time: 08 hr 39 min 56 sec)
Simulation finished CPU 2 instructions: 100000002 cycles: 25000086 cumulative IPC: 4 (Simulation time: 08 hr 39 min 56 sec)
Heartbeat CPU 4 instructions: 530000009 cycles: 132511608 heartbeat IPC: 4 cumulative IPC: 4 (Simulation time: 08 hr 42 min 34 sec)
Heartbeat CPU 3 instructions: 530000009 cycles: 132511637 heartbeat IPC: 4 cumulative IPC: 4 (Simulation time: 08 hr 42 min 34 sec)
Heartbeat CPU 5 instructions: 530000009 cycles: 132511667 heartbeat IPC: 4 cumulative IPC: 4 (Simulation time: 08 hr 42 min 34 sec)
Heartbeat CPU 6 instructions: 530000004 cycles: 132511881 heartbeat IPC: 4 cumulative IPC: 4 (Simulation time: 08 hr 42 min 34 sec)
Heartbeat CPU 7 instructions: 530000006 cycles: 132512017 heartbeat IPC: 4 cumulative IPC: 4 (Simulation time: 08 hr 42 min 34 sec)
Heartbeat CPU 2 instructions: 530000008 cycles: 132514546 heartbeat IPC: 4 cumulative IPC: 4 (Simulation time: 08 hr 42 min 35 sec)
Heartbeat CPU 4 instructions: 540000009 cycles: 135011608 heartbeat IPC: 4 cumulative IPC: 4 (Simulation time: 08 hr 52 min 03 sec)
Heartbeat CPU 3 instructions: 540000009 cycles: 135011637 heartbeat IPC: 4 cumulative IPC: 4 (Simulation time: 08 hr 52 min 03 sec)
Heartbeat CPU 5 instructions: 540000009 cycles: 135011667 heartbeat IPC: 4 cumulative IPC: 4 (Simulation time: 08 hr 52 min 03 sec)
Heartbeat CPU 6 instructions: 540000004 cycles: 135011881 heartbeat IPC: 4 cumulative IPC: 4 (Simulation time: 08 hr 52 min 03 sec)
Heartbeat CPU 7 instructions: 540000006 cycles: 135012017 heartbeat IPC: 4 cumulative IPC: 4 (Simulation time: 08 hr 52 min 03 sec)
Heartbeat CPU 2 instructions: 540000008 cycles: 135014546 heartbeat IPC: 4 cumulative IPC: 4 (Simulation time: 08 hr 52 min 04 sec)
*** Reached end of trace: (2, "traces/ocean_8t/ocean2.champsimtrace")
*** Reached end of trace: (5, "traces/ocean_8t/ocean5.champsimtrace")
*** Reached end of trace: (4, "traces/ocean_8t/ocean4.champsimtrace")
*** Reached end of trace: (6, "traces/ocean_8t/ocean6.champsimtrace")
*** Reached end of trace: (3, "traces/ocean_8t/ocean3.champsimtrace")
*** Reached end of trace: (7, "traces/ocean_8t/ocean7.champsimtrace")
Heartbeat CPU 4 instructions: 550000010 cycles: 137511641 heartbeat IPC: 4 cumulative IPC: 4 (Simulation time: 09 hr 01 min 38 sec)
Heartbeat CPU 3 instructions: 550000012 cycles: 137511652 heartbeat IPC: 4 cumulative IPC: 4 (Simulation time: 09 hr 01 min 38 sec)
Heartbeat CPU 5 instructions: 550000009 cycles: 137511688 heartbeat IPC: 4 cumulative IPC: 4 (Simulation time: 09 hr 01 min 38 sec)
Heartbeat CPU 6 instructions: 550000005 cycles: 137511914 heartbeat IPC: 4 cumulative IPC: 4 (Simulation time: 09 hr 01 min 38 sec)
Heartbeat CPU 7 instructions: 550000008 cycles: 137512049 heartbeat IPC: 4 cumulative IPC: 4 (Simulation time: 09 hr 01 min 38 sec)
Heartbeat CPU 2 instructions: 550000009 cycles: 137514589 heartbeat IPC: 4 cumulative IPC: 4 (Simulation time: 09 hr 01 min 39 sec)
Heartbeat CPU 4 instructions: 560000010 cycles: 140011641 heartbeat IPC: 4 cumulative IPC: 4 (Simulation time: 09 hr 11 min 02 sec)
Heartbeat CPU 3 instructions: 560000012 cycles: 140011652 heartbeat IPC: 4 cumulative IPC: 4 (Simulation time: 09 hr 11 min 02 sec)
Heartbeat CPU 5 instructions: 560000009 cycles: 140011688 heartbeat IPC: 4 cumulative IPC: 4 (Simulation time: 09 hr 11 min 02 sec)
Heartbeat CPU 6 instructions: 560000005 cycles: 140011914 heartbeat IPC: 4 cumulative IPC: 4 (Simulation time: 09 hr 11 min 02 sec)
Heartbeat CPU 7 instructions: 560000008 cycles: 140012049 heartbeat IPC: 4 cumulative IPC: 4 (Simulation time: 09 hr 11 min 02 sec)
Heartbeat CPU 2 instructions: 560000009 cycles: 140014589 heartbeat IPC: 4 cumulative IPC: 4 (Simulation time: 09 hr 11 min 02 sec)
Heartbeat CPU 4 instructions: 570000010 cycles: 142511641 heartbeat IPC: 4 cumulative IPC: 4 (Simulation time: 09 hr 20 min 37 sec)
Heartbeat CPU 3 instructions: 570000012 cycles: 142511652 heartbeat IPC: 4 cumulative IPC: 4 (Simulation time: 09 hr 20 min 37 sec)
Heartbeat CPU 5 instructions: 570000009 cycles: 142511688 heartbeat IPC: 4 cumulative IPC: 4 (Simulation time: 09 hr 20 min 37 sec)
Heartbeat CPU 6 instructions: 570000005 cycles: 142511914 heartbeat IPC: 4 cumulative IPC: 4 (Simulation time: 09 hr 20 min 37 sec)
Heartbeat CPU 7 instructions: 570000008 cycles: 142512049 heartbeat IPC: 4 cumulative IPC: 4 (Simulation time: 09 hr 20 min 37 sec)
Heartbeat CPU 2 instructions: 570000009 cycles: 142514589 heartbeat IPC: 4 cumulative IPC: 4 (Simulation time: 09 hr 20 min 37 sec)
Heartbeat CPU 4 instructions: 580000010 cycles: 145011641 heartbeat IPC: 4 cumulative IPC: 4 (Simulation time: 09 hr 30 min 11 sec)
Heartbeat CPU 3 instructions: 580000012 cycles: 145011652 heartbeat IPC: 4 cumulative IPC: 4 (Simulation time: 09 hr 30 min 11 sec)
Heartbeat CPU 5 instructions: 580000009 cycles: 145011688 heartbeat IPC: 4 cumulative IPC: 4 (Simulation time: 09 hr 30 min 11 sec)
Heartbeat CPU 6 instructions: 580000005 cycles: 145011914 heartbeat IPC: 4 cumulative IPC: 4 (Simulation time: 09 hr 30 min 11 sec)
Heartbeat CPU 7 instructions: 580000008 cycles: 145012049 heartbeat IPC: 4 cumulative IPC: 4 (Simulation time: 09 hr 30 min 11 sec)
Heartbeat CPU 2 instructions: 580000009 cycles: 145014589 heartbeat IPC: 4 cumulative IPC: 4 (Simulation time: 09 hr 30 min 12 sec)
*** Reached end of trace: (2, "traces/ocean_8t/ocean2.champsimtrace")
*** Reached end of trace: (5, "traces/ocean_8t/ocean5.champsimtrace")
*** Reached end of trace: (4, "traces/ocean_8t/ocean4.champsimtrace")
*** Reached end of trace: (6, "traces/ocean_8t/ocean6.champsimtrace")
Heartbeat CPU 3 instructions: 590000012 cycles: 147511652 heartbeat IPC: 4 cumulative IPC: 4 (Simulation time: 09 hr 39 min 47 sec)
Heartbeat CPU 4 instructions: 590000011 cycles: 147511674 heartbeat IPC: 4 cumulative IPC: 4 (Simulation time: 09 hr 39 min 47 sec)
Heartbeat CPU 5 instructions: 590000009 cycles: 147511709 heartbeat IPC: 4 cumulative IPC: 4 (Simulation time: 09 hr 39 min 47 sec)
Heartbeat CPU 6 instructions: 590000006 cycles: 147511947 heartbeat IPC: 4 cumulative IPC: 4 (Simulation time: 09 hr 39 min 47 sec)
Heartbeat CPU 7 instructions: 590000008 cycles: 147512049 heartbeat IPC: 4 cumulative IPC: 4 (Simulation time: 09 hr 39 min 47 sec)
Heartbeat CPU 2 instructions: 590000010 cycles: 147514632 heartbeat IPC: 4 cumulative IPC: 4 (Simulation time: 09 hr 39 min 47 sec)
*** Reached end of trace: (3, "traces/ocean_8t/ocean3.champsimtrace")
*** Reached end of trace: (7, "traces/ocean_8t/ocean7.champsimtrace")
Heartbeat CPU 3 instructions: 600000015 cycles: 150011667 heartbeat IPC: 4 cumulative IPC: 4 (Simulation time: 09 hr 48 min 57 sec)
Heartbeat CPU 4 instructions: 600000011 cycles: 150011674 heartbeat IPC: 4 cumulative IPC: 4 (Simulation time: 09 hr 48 min 57 sec)
Heartbeat CPU 5 instructions: 600000009 cycles: 150011709 heartbeat IPC: 4 cumulative IPC: 4 (Simulation time: 09 hr 48 min 57 sec)
Heartbeat CPU 6 instructions: 600000006 cycles: 150011947 heartbeat IPC: 4 cumulative IPC: 4 (Simulation time: 09 hr 48 min 57 sec)
Heartbeat CPU 7 instructions: 600000010 cycles: 150012081 heartbeat IPC: 4 cumulative IPC: 4 (Simulation time: 09 hr 48 min 57 sec)
Heartbeat CPU 2 instructions: 600000010 cycles: 150014632 heartbeat IPC: 4 cumulative IPC: 4 (Simulation time: 09 hr 48 min 58 sec)
Heartbeat CPU 0 instructions: 60000011 cycles: 150142431 heartbeat IPC: 0.2308 cumulative IPC: 0.2308 (Simulation time: 09 hr 49 min 26 sec)
Heartbeat CPU 1 instructions: 260000031 cycles: 151832921 heartbeat IPC: 0.2696 cumulative IPC: 0.2946 (Simulation time: 09 hr 55 min 56 sec)
Heartbeat CPU 3 instructions: 610000015 cycles: 152511667 heartbeat IPC: 4 cumulative IPC: 4 (Simulation time: 09 hr 58 min 32 sec)
Heartbeat CPU 4 instructions: 610000011 cycles: 152511674 heartbeat IPC: 4 cumulative IPC: 4 (Simulation time: 09 hr 58 min 32 sec)
Heartbeat CPU 5 instructions: 610000009 cycles: 152511709 heartbeat IPC: 4 cumulative IPC: 4 (Simulation time: 09 hr 58 min 32 sec)
Heartbeat CPU 6 instructions: 610000006 cycles: 152511947 heartbeat IPC: 4 cumulative IPC: 4 (Simulation time: 09 hr 58 min 32 sec)
Heartbeat CPU 7 instructions: 610000010 cycles: 152512081 heartbeat IPC: 4 cumulative IPC: 4 (Simulation time: 09 hr 58 min 32 sec)
Heartbeat CPU 2 instructions: 610000010 cycles: 152514632 heartbeat IPC: 4 cumulative IPC: 4 (Simulation time: 09 hr 58 min 32 sec)
Heartbeat CPU 3 instructions: 620000015 cycles: 155011667 heartbeat IPC: 4 cumulative IPC: 4 (Simulation time: 10 hr 07 min 55 sec)
Heartbeat CPU 4 instructions: 620000011 cycles: 155011674 heartbeat IPC: 4 cumulative IPC: 4 (Simulation time: 10 hr 07 min 55 sec)
Heartbeat CPU 5 instructions: 620000009 cycles: 155011709 heartbeat IPC: 4 cumulative IPC: 4 (Simulation time: 10 hr 07 min 55 sec)
Heartbeat CPU 6 instructions: 620000006 cycles: 155011947 heartbeat IPC: 4 cumulative IPC: 4 (Simulation time: 10 hr 07 min 55 sec)
Heartbeat CPU 7 instructions: 620000010 cycles: 155012081 heartbeat IPC: 4 cumulative IPC: 4 (Simulation time: 10 hr 07 min 55 sec)
Heartbeat CPU 2 instructions: 620000010 cycles: 155014632 heartbeat IPC: 4 cumulative IPC: 4 (Simulation time: 10 hr 07 min 56 sec)
Heartbeat CPU 3 instructions: 630000015 cycles: 157511667 heartbeat IPC: 4 cumulative IPC: 4 (Simulation time: 10 hr 17 min 09 sec)
Heartbeat CPU 4 instructions: 630000011 cycles: 157511674 heartbeat IPC: 4 cumulative IPC: 4 (Simulation time: 10 hr 17 min 09 sec)
Heartbeat CPU 5 instructions: 630000009 cycles: 157511709 heartbeat IPC: 4 cumulative IPC: 4 (Simulation time: 10 hr 17 min 09 sec)
Heartbeat CPU 6 instructions: 630000006 cycles: 157511947 heartbeat IPC: 4 cumulative IPC: 4 (Simulation time: 10 hr 17 min 09 sec)
Heartbeat CPU 7 instructions: 630000010 cycles: 157512081 heartbeat IPC: 4 cumulative IPC: 4 (Simulation time: 10 hr 17 min 09 sec)
Heartbeat CPU 2 instructions: 630000010 cycles: 157514632 heartbeat IPC: 4 cumulative IPC: 4 (Simulation time: 10 hr 17 min 10 sec)
*** Reached end of trace: (2, "traces/ocean_8t/ocean2.champsimtrace")
*** Reached end of trace: (5, "traces/ocean_8t/ocean5.champsimtrace")
*** Reached end of trace: (4, "traces/ocean_8t/ocean4.champsimtrace")
*** Reached end of trace: (6, "traces/ocean_8t/ocean6.champsimtrace")
*** Reached end of trace: (3, "traces/ocean_8t/ocean3.champsimtrace")
*** Reached end of trace: (7, "traces/ocean_8t/ocean7.champsimtrace")
Heartbeat CPU 3 instructions: 640000018 cycles: 160011682 heartbeat IPC: 4 cumulative IPC: 4 (Simulation time: 10 hr 26 min 18 sec)
Heartbeat CPU 4 instructions: 640000012 cycles: 160011707 heartbeat IPC: 4 cumulative IPC: 4 (Simulation time: 10 hr 26 min 18 sec)
Heartbeat CPU 5 instructions: 640000009 cycles: 160011730 heartbeat IPC: 4 cumulative IPC: 4 (Simulation time: 10 hr 26 min 18 sec)
Heartbeat CPU 6 instructions: 640000007 cycles: 160011980 heartbeat IPC: 4 cumulative IPC: 4 (Simulation time: 10 hr 26 min 18 sec)
Heartbeat CPU 7 instructions: 640000012 cycles: 160012113 heartbeat IPC: 4 cumulative IPC: 4 (Simulation time: 10 hr 26 min 18 sec)
Heartbeat CPU 2 instructions: 640000011 cycles: 160014675 heartbeat IPC: 4 cumulative IPC: 4 (Simulation time: 10 hr 26 min 19 sec)
Heartbeat CPU 3 instructions: 650000018 cycles: 162511682 heartbeat IPC: 4 cumulative IPC: 4 (Simulation time: 10 hr 35 min 16 sec)
Heartbeat CPU 4 instructions: 650000012 cycles: 162511707 heartbeat IPC: 4 cumulative IPC: 4 (Simulation time: 10 hr 35 min 16 sec)
Heartbeat CPU 5 instructions: 650000009 cycles: 162511730 heartbeat IPC: 4 cumulative IPC: 4 (Simulation time: 10 hr 35 min 16 sec)
Heartbeat CPU 6 instructions: 650000007 cycles: 162511980 heartbeat IPC: 4 cumulative IPC: 4 (Simulation time: 10 hr 35 min 16 sec)
Heartbeat CPU 7 instructions: 650000012 cycles: 162512113 heartbeat IPC: 4 cumulative IPC: 4 (Simulation time: 10 hr 35 min 16 sec)
Heartbeat CPU 2 instructions: 650000011 cycles: 162514675 heartbeat IPC: 4 cumulative IPC: 4 (Simulation time: 10 hr 35 min 16 sec)
Heartbeat CPU 3 instructions: 660000018 cycles: 165011682 heartbeat IPC: 4 cumulative IPC: 4 (Simulation time: 10 hr 44 min 10 sec)
Heartbeat CPU 4 instructions: 660000012 cycles: 165011707 heartbeat IPC: 4 cumulative IPC: 4 (Simulation time: 10 hr 44 min 10 sec)
Heartbeat CPU 5 instructions: 660000009 cycles: 165011730 heartbeat IPC: 4 cumulative IPC: 4 (Simulation time: 10 hr 44 min 10 sec)
Heartbeat CPU 6 instructions: 660000007 cycles: 165011980 heartbeat IPC: 4 cumulative IPC: 4 (Simulation time: 10 hr 44 min 11 sec)
Heartbeat CPU 7 instructions: 660000012 cycles: 165012113 heartbeat IPC: 4 cumulative IPC: 4 (Simulation time: 10 hr 44 min 11 sec)
Heartbeat CPU 2 instructions: 660000011 cycles: 165014675 heartbeat IPC: 4 cumulative IPC: 4 (Simulation time: 10 hr 44 min 11 sec)
Heartbeat CPU 3 instructions: 670000018 cycles: 167511682 heartbeat IPC: 4 cumulative IPC: 4 (Simulation time: 10 hr 52 min 53 sec)
Heartbeat CPU 4 instructions: 670000012 cycles: 167511707 heartbeat IPC: 4 cumulative IPC: 4 (Simulation time: 10 hr 52 min 53 sec)
Heartbeat CPU 5 instructions: 670000009 cycles: 167511730 heartbeat IPC: 4 cumulative IPC: 4 (Simulation time: 10 hr 52 min 53 sec)
Heartbeat CPU 6 instructions: 670000007 cycles: 167511980 heartbeat IPC: 4 cumulative IPC: 4 (Simulation time: 10 hr 52 min 53 sec)
Heartbeat CPU 7 instructions: 670000012 cycles: 167512113 heartbeat IPC: 4 cumulative IPC: 4 (Simulation time: 10 hr 52 min 53 sec)
Heartbeat CPU 2 instructions: 670000011 cycles: 167514675 heartbeat IPC: 4 cumulative IPC: 4 (Simulation time: 10 hr 52 min 54 sec)
*** Reached end of trace: (2, "traces/ocean_8t/ocean2.champsimtrace")
*** Reached end of trace: (5, "traces/ocean_8t/ocean5.champsimtrace")
*** Reached end of trace: (4, "traces/ocean_8t/ocean4.champsimtrace")
*** Reached end of trace: (6, "traces/ocean_8t/ocean6.champsimtrace")
Heartbeat CPU 3 instructions: 680000018 cycles: 170011682 heartbeat IPC: 4 cumulative IPC: 4 (Simulation time: 11 hr 01 min 36 sec)
Heartbeat CPU 4 instructions: 680000013 cycles: 170011740 heartbeat IPC: 4 cumulative IPC: 4 (Simulation time: 11 hr 01 min 36 sec)
Heartbeat CPU 5 instructions: 680000009 cycles: 170011751 heartbeat IPC: 4 cumulative IPC: 4 (Simulation time: 11 hr 01 min 36 sec)
Heartbeat CPU 6 instructions: 680000008 cycles: 170012013 heartbeat IPC: 4 cumulative IPC: 4 (Simulation time: 11 hr 01 min 36 sec)
Heartbeat CPU 7 instructions: 680000012 cycles: 170012113 heartbeat IPC: 4 cumulative IPC: 4 (Simulation time: 11 hr 01 min 36 sec)
Heartbeat CPU 2 instructions: 680000012 cycles: 170014718 heartbeat IPC: 4 cumulative IPC: 4 (Simulation time: 11 hr 01 min 37 sec)
*** Reached end of trace: (3, "traces/ocean_8t/ocean3.champsimtrace")
*** Reached end of trace: (7, "traces/ocean_8t/ocean7.champsimtrace")
Heartbeat CPU 3 instructions: 690000021 cycles: 172511697 heartbeat IPC: 4 cumulative IPC: 4 (Simulation time: 11 hr 10 min 18 sec)
Heartbeat CPU 4 instructions: 690000013 cycles: 172511740 heartbeat IPC: 4 cumulative IPC: 4 (Simulation time: 11 hr 10 min 18 sec)
Heartbeat CPU 5 instructions: 690000009 cycles: 172511751 heartbeat IPC: 4 cumulative IPC: 4 (Simulation time: 11 hr 10 min 18 sec)
Heartbeat CPU 6 instructions: 690000008 cycles: 172512013 heartbeat IPC: 4 cumulative IPC: 4 (Simulation time: 11 hr 10 min 18 sec)
Heartbeat CPU 7 instructions: 690000014 cycles: 172512145 heartbeat IPC: 4 cumulative IPC: 4 (Simulation time: 11 hr 10 min 18 sec)
Heartbeat CPU 2 instructions: 690000012 cycles: 172514718 heartbeat IPC: 4 cumulative IPC: 4 (Simulation time: 11 hr 10 min 19 sec)
Heartbeat CPU 3 instructions: 700000021 cycles: 175011697 heartbeat IPC: 4 cumulative IPC: 4 (Simulation time: 11 hr 19 min 02 sec)
Heartbeat CPU 4 instructions: 700000013 cycles: 175011740 heartbeat IPC: 4 cumulative IPC: 4 (Simulation time: 11 hr 19 min 02 sec)
Heartbeat CPU 5 instructions: 700000009 cycles: 175011751 heartbeat IPC: 4 cumulative IPC: 4 (Simulation time: 11 hr 19 min 02 sec)
Heartbeat CPU 6 instructions: 700000008 cycles: 175012013 heartbeat IPC: 4 cumulative IPC: 4 (Simulation time: 11 hr 19 min 02 sec)
Heartbeat CPU 7 instructions: 700000014 cycles: 175012145 heartbeat IPC: 4 cumulative IPC: 4 (Simulation time: 11 hr 19 min 02 sec)
Heartbeat CPU 2 instructions: 700000012 cycles: 175014718 heartbeat IPC: 4 cumulative IPC: 4 (Simulation time: 11 hr 19 min 02 sec)
Heartbeat CPU 3 instructions: 710000021 cycles: 177511697 heartbeat IPC: 4 cumulative IPC: 4 (Simulation time: 11 hr 27 min 51 sec)
Heartbeat CPU 4 instructions: 710000013 cycles: 177511740 heartbeat IPC: 4 cumulative IPC: 4 (Simulation time: 11 hr 27 min 51 sec)
Heartbeat CPU 5 instructions: 710000009 cycles: 177511751 heartbeat IPC: 4 cumulative IPC: 4 (Simulation time: 11 hr 27 min 51 sec)
Heartbeat CPU 6 instructions: 710000008 cycles: 177512013 heartbeat IPC: 4 cumulative IPC: 4 (Simulation time: 11 hr 27 min 51 sec)
Heartbeat CPU 7 instructions: 710000014 cycles: 177512145 heartbeat IPC: 4 cumulative IPC: 4 (Simulation time: 11 hr 27 min 51 sec)
Heartbeat CPU 2 instructions: 710000012 cycles: 177514718 heartbeat IPC: 4 cumulative IPC: 4 (Simulation time: 11 hr 27 min 51 sec)
Heartbeat CPU 3 instructions: 720000021 cycles: 180011697 heartbeat IPC: 4 cumulative IPC: 4 (Simulation time: 11 hr 36 min 41 sec)
Heartbeat CPU 4 instructions: 720000013 cycles: 180011740 heartbeat IPC: 4 cumulative IPC: 4 (Simulation time: 11 hr 36 min 41 sec)
Heartbeat CPU 5 instructions: 720000009 cycles: 180011751 heartbeat IPC: 4 cumulative IPC: 4 (Simulation time: 11 hr 36 min 41 sec)
Heartbeat CPU 6 instructions: 720000008 cycles: 180012013 heartbeat IPC: 4 cumulative IPC: 4 (Simulation time: 11 hr 36 min 41 sec)
Heartbeat CPU 7 instructions: 720000014 cycles: 180012145 heartbeat IPC: 4 cumulative IPC: 4 (Simulation time: 11 hr 36 min 41 sec)
Heartbeat CPU 2 instructions: 720000012 cycles: 180014718 heartbeat IPC: 4 cumulative IPC: 4 (Simulation time: 11 hr 36 min 41 sec)
*** Reached end of trace: (2, "traces/ocean_8t/ocean2.champsimtrace")
*** Reached end of trace: (5, "traces/ocean_8t/ocean5.champsimtrace")
*** Reached end of trace: (4, "traces/ocean_8t/ocean4.champsimtrace")
*** Reached end of trace: (6, "traces/ocean_8t/ocean6.champsimtrace")
*** Reached end of trace: (3, "traces/ocean_8t/ocean3.champsimtrace")
*** Reached end of trace: (7, "traces/ocean_8t/ocean7.champsimtrace")
Heartbeat CPU 3 instructions: 730000024 cycles: 182511712 heartbeat IPC: 4 cumulative IPC: 4 (Simulation time: 11 hr 45 min 30 sec)
Heartbeat CPU 5 instructions: 730000009 cycles: 182511772 heartbeat IPC: 4 cumulative IPC: 4 (Simulation time: 11 hr 45 min 30 sec)
Heartbeat CPU 4 instructions: 730000014 cycles: 182511773 heartbeat IPC: 4 cumulative IPC: 4 (Simulation time: 11 hr 45 min 30 sec)
Heartbeat CPU 6 instructions: 730000009 cycles: 182512046 heartbeat IPC: 4 cumulative IPC: 4 (Simulation time: 11 hr 45 min 30 sec)
Heartbeat CPU 7 instructions: 730000016 cycles: 182512177 heartbeat IPC: 4 cumulative IPC: 4 (Simulation time: 11 hr 45 min 30 sec)
Heartbeat CPU 2 instructions: 730000013 cycles: 182514761 heartbeat IPC: 4 cumulative IPC: 4 (Simulation time: 11 hr 45 min 31 sec)
Heartbeat CPU 3 instructions: 740000024 cycles: 185011712 heartbeat IPC: 4 cumulative IPC: 4 (Simulation time: 11 hr 54 min 34 sec)
Heartbeat CPU 5 instructions: 740000009 cycles: 185011772 heartbeat IPC: 4 cumulative IPC: 4 (Simulation time: 11 hr 54 min 34 sec)
Heartbeat CPU 4 instructions: 740000014 cycles: 185011773 heartbeat IPC: 4 cumulative IPC: 4 (Simulation time: 11 hr 54 min 34 sec)
Heartbeat CPU 6 instructions: 740000009 cycles: 185012046 heartbeat IPC: 4 cumulative IPC: 4 (Simulation time: 11 hr 54 min 34 sec)
Heartbeat CPU 7 instructions: 740000016 cycles: 185012177 heartbeat IPC: 4 cumulative IPC: 4 (Simulation time: 11 hr 54 min 34 sec)
Heartbeat CPU 2 instructions: 740000013 cycles: 185014761 heartbeat IPC: 4 cumulative IPC: 4 (Simulation time: 11 hr 54 min 35 sec)
Heartbeat CPU 1 instructions: 270000031 cycles: 186880901 heartbeat IPC: 0.2853 cumulative IPC: 0.2905 (Simulation time: 12 hr 01 min 20 sec)
Heartbeat CPU 3 instructions: 750000024 cycles: 187511712 heartbeat IPC: 4 cumulative IPC: 4 (Simulation time: 12 hr 03 min 35 sec)
Heartbeat CPU 5 instructions: 750000009 cycles: 187511772 heartbeat IPC: 4 cumulative IPC: 4 (Simulation time: 12 hr 03 min 35 sec)
Heartbeat CPU 4 instructions: 750000014 cycles: 187511773 heartbeat IPC: 4 cumulative IPC: 4 (Simulation time: 12 hr 03 min 35 sec)
Heartbeat CPU 6 instructions: 750000009 cycles: 187512046 heartbeat IPC: 4 cumulative IPC: 4 (Simulation time: 12 hr 03 min 35 sec)
Heartbeat CPU 7 instructions: 750000016 cycles: 187512177 heartbeat IPC: 4 cumulative IPC: 4 (Simulation time: 12 hr 03 min 35 sec)
Heartbeat CPU 2 instructions: 750000013 cycles: 187514761 heartbeat IPC: 4 cumulative IPC: 4 (Simulation time: 12 hr 03 min 36 sec)
Heartbeat CPU 3 instructions: 760000024 cycles: 190011712 heartbeat IPC: 4 cumulative IPC: 4 (Simulation time: 12 hr 12 min 42 sec)
Heartbeat CPU 5 instructions: 760000009 cycles: 190011772 heartbeat IPC: 4 cumulative IPC: 4 (Simulation time: 12 hr 12 min 42 sec)
Heartbeat CPU 4 instructions: 760000014 cycles: 190011773 heartbeat IPC: 4 cumulative IPC: 4 (Simulation time: 12 hr 12 min 42 sec)
Heartbeat CPU 6 instructions: 760000009 cycles: 190012046 heartbeat IPC: 4 cumulative IPC: 4 (Simulation time: 12 hr 12 min 42 sec)
Heartbeat CPU 7 instructions: 760000016 cycles: 190012177 heartbeat IPC: 4 cumulative IPC: 4 (Simulation time: 12 hr 12 min 42 sec)
Heartbeat CPU 2 instructions: 760000013 cycles: 190014761 heartbeat IPC: 4 cumulative IPC: 4 (Simulation time: 12 hr 12 min 42 sec)
*** Reached end of trace: (2, "traces/ocean_8t/ocean2.champsimtrace")
*** Reached end of trace: (5, "traces/ocean_8t/ocean5.champsimtrace")
*** Reached end of trace: (4, "traces/ocean_8t/ocean4.champsimtrace")
*** Reached end of trace: (6, "traces/ocean_8t/ocean6.champsimtrace")
Heartbeat CPU 3 instructions: 770000024 cycles: 192511712 heartbeat IPC: 4 cumulative IPC: 4 (Simulation time: 12 hr 21 min 52 sec)
Heartbeat CPU 5 instructions: 770000009 cycles: 192511793 heartbeat IPC: 4 cumulative IPC: 4 (Simulation time: 12 hr 21 min 52 sec)
Heartbeat CPU 4 instructions: 770000015 cycles: 192511806 heartbeat IPC: 4 cumulative IPC: 4 (Simulation time: 12 hr 21 min 52 sec)
Heartbeat CPU 6 instructions: 770000010 cycles: 192512079 heartbeat IPC: 4 cumulative IPC: 4 (Simulation time: 12 hr 21 min 52 sec)
Heartbeat CPU 7 instructions: 770000016 cycles: 192512177 heartbeat IPC: 4 cumulative IPC: 4 (Simulation time: 12 hr 21 min 52 sec)
Heartbeat CPU 2 instructions: 770000014 cycles: 192514804 heartbeat IPC: 4 cumulative IPC: 4 (Simulation time: 12 hr 21 min 53 sec)
*** Reached end of trace: (3, "traces/ocean_8t/ocean3.champsimtrace")
*** Reached end of trace: (1, "traces/ocean_8t/ocean1.champsimtrace")
*** Reached end of trace: (7, "traces/ocean_8t/ocean7.champsimtrace")
Heartbeat CPU 3 instructions: 780000027 cycles: 195011727 heartbeat IPC: 4 cumulative IPC: 4 (Simulation time: 12 hr 31 min 10 sec)
Heartbeat CPU 5 instructions: 780000009 cycles: 195011793 heartbeat IPC: 4 cumulative IPC: 4 (Simulation time: 12 hr 31 min 10 sec)
Heartbeat CPU 4 instructions: 780000015 cycles: 195011806 heartbeat IPC: 4 cumulative IPC: 4 (Simulation time: 12 hr 31 min 10 sec)
Heartbeat CPU 6 instructions: 780000010 cycles: 195012079 heartbeat IPC: 4 cumulative IPC: 4 (Simulation time: 12 hr 31 min 10 sec)
Heartbeat CPU 7 instructions: 780000018 cycles: 195012209 heartbeat IPC: 4 cumulative IPC: 4 (Simulation time: 12 hr 31 min 10 sec)
Heartbeat CPU 2 instructions: 780000014 cycles: 195014804 heartbeat IPC: 4 cumulative IPC: 4 (Simulation time: 12 hr 31 min 11 sec)
Heartbeat CPU 3 instructions: 790000027 cycles: 197511727 heartbeat IPC: 4 cumulative IPC: 4 (Simulation time: 12 hr 40 min 38 sec)
Heartbeat CPU 5 instructions: 790000009 cycles: 197511793 heartbeat IPC: 4 cumulative IPC: 4 (Simulation time: 12 hr 40 min 38 sec)
Heartbeat CPU 4 instructions: 790000015 cycles: 197511806 heartbeat IPC: 4 cumulative IPC: 4 (Simulation time: 12 hr 40 min 38 sec)
Heartbeat CPU 6 instructions: 790000010 cycles: 197512079 heartbeat IPC: 4 cumulative IPC: 4 (Simulation time: 12 hr 40 min 38 sec)
Heartbeat CPU 7 instructions: 790000018 cycles: 197512209 heartbeat IPC: 4 cumulative IPC: 4 (Simulation time: 12 hr 40 min 38 sec)
Heartbeat CPU 2 instructions: 790000014 cycles: 197514804 heartbeat IPC: 4 cumulative IPC: 4 (Simulation time: 12 hr 40 min 39 sec)
Heartbeat CPU 1 instructions: 280000032 cycles: 199333614 heartbeat IPC: 0.803 cumulative IPC: 0.3595 (Simulation time: 12 hr 47 min 28 sec)
Heartbeat CPU 3 instructions: 800000027 cycles: 200011727 heartbeat IPC: 4 cumulative IPC: 4 (Simulation time: 12 hr 50 min 05 sec)
Heartbeat CPU 5 instructions: 800000009 cycles: 200011793 heartbeat IPC: 4 cumulative IPC: 4 (Simulation time: 12 hr 50 min 05 sec)
Heartbeat CPU 4 instructions: 800000015 cycles: 200011806 heartbeat IPC: 4 cumulative IPC: 4 (Simulation time: 12 hr 50 min 05 sec)
Heartbeat CPU 6 instructions: 800000010 cycles: 200012079 heartbeat IPC: 4 cumulative IPC: 4 (Simulation time: 12 hr 50 min 05 sec)
Heartbeat CPU 7 instructions: 800000018 cycles: 200012209 heartbeat IPC: 4 cumulative IPC: 4 (Simulation time: 12 hr 50 min 05 sec)
Heartbeat CPU 2 instructions: 800000014 cycles: 200014804 heartbeat IPC: 4 cumulative IPC: 4 (Simulation time: 12 hr 50 min 05 sec)
Heartbeat CPU 3 instructions: 810000027 cycles: 202511727 heartbeat IPC: 4 cumulative IPC: 4 (Simulation time: 12 hr 59 min 19 sec)
Heartbeat CPU 5 instructions: 810000009 cycles: 202511793 heartbeat IPC: 4 cumulative IPC: 4 (Simulation time: 12 hr 59 min 19 sec)
Heartbeat CPU 4 instructions: 810000015 cycles: 202511806 heartbeat IPC: 4 cumulative IPC: 4 (Simulation time: 12 hr 59 min 19 sec)
Heartbeat CPU 6 instructions: 810000010 cycles: 202512079 heartbeat IPC: 4 cumulative IPC: 4 (Simulation time: 12 hr 59 min 19 sec)
[...]
cpu4->cpu4_ITLB RFO          ACCESS:          0 HIT:          0 MISS:          0 MSHR_MERGE:          0
cpu4->cpu4_ITLB PREFETCH     ACCESS:          0 HIT:          0 MISS:          0 MSHR_MERGE:          0
cpu4->cpu4_ITLB WRITE        ACCESS:          0 HIT:          0 MISS:          0 MSHR_MERGE:          0
cpu4->cpu4_ITLB TRANSLATION  ACCESS:          0 HIT:          0 MISS:          0 MSHR_MERGE:          0
cpu4->cpu4_ITLB PREFETCH REQUESTED:          0 ISSUED:          0 USEFUL:          0 USELESS:          0
cpu4->cpu4_ITLB AVERAGE MISS LATENCY: 3.859 cycles
cpu4_ITLB COHERENCE INVALIDATIONS:          0
cpu4_ITLB COHERENCE WRITE-HIT OTHER-SHARER EVENTS:          0
cpu4_DTLB COHERENCE INVALIDATIONS:          0
cpu4_DTLB COHERENCE WRITE-HIT OTHER-SHARER EVENTS:          0
cpu3->cpu3_STLB TOTAL        ACCESS:        780 HIT:        780 MISS:          0 MSHR_MERGE:          0
cpu3->cpu3_STLB LOAD         ACCESS:        780 HIT:        780 MISS:          0 MSHR_MERGE:          0
cpu3->cpu3_STLB RFO          ACCESS:          0 HIT:          0 MISS:          0 MSHR_MERGE:          0
cpu3->cpu3_STLB PREFETCH     ACCESS:          0 HIT:          0 MISS:          0 MSHR_MERGE:          0
cpu3->cpu3_STLB WRITE        ACCESS:          0 HIT:          0 MISS:          0 MSHR_MERGE:          0
cpu3->cpu3_STLB TRANSLATION  ACCESS:          0 HIT:          0 MISS:          0 MSHR_MERGE:          0
cpu3->cpu3_STLB PREFETCH REQUESTED:          0 ISSUED:          0 USEFUL:          0 USELESS:          0
cpu3->cpu3_STLB AVERAGE MISS LATENCY: - cycles
cpu3_STLB COHERENCE INVALIDATIONS:          0
cpu3_STLB COHERENCE WRITE-HIT OTHER-SHARER EVENTS:          0
cpu3->cpu3_L2C TOTAL        ACCESS:      76022 HIT:      76022 MISS:          0 MSHR_MERGE:          0
cpu3->cpu3_L2C LOAD         ACCESS:      76022 HIT:      76022 MISS:          0 MSHR_MERGE:          0
cpu3->cpu3_L2C RFO          ACCESS:          0 HIT:          0 MISS:          0 MSHR_MERGE:          0
cpu3->cpu3_L2C PREFETCH     ACCESS:          0 HIT:          0 MISS:          0 MSHR_MERGE:          0
cpu3->cpu3_L2C WRITE        ACCESS:          0 HIT:          0 MISS:          0 MSHR_MERGE:          0
cpu3->cpu3_L2C TRANSLATION  ACCESS:          0 HIT:          0 MISS:          0 MSHR_MERGE:          0
cpu3->cpu3_L2C PREFETCH REQUESTED:          0 ISSUED:          0 USEFUL:          0 USELESS:          0
cpu3->cpu3_L2C AVERAGE MISS LATENCY: - cycles
cpu3_L2C COHERENCE INVALIDATIONS:          0
cpu3_L2C COHERENCE WRITE-HIT OTHER-SHARER EVENTS:          0
cpu3->cpu3_L1I TOTAL        ACCESS:  346031734 HIT:  345917742 MISS:     113992 MSHR_MERGE:      37970
cpu3->cpu3_L1I LOAD         ACCESS:  346031734 HIT:  345917742 MISS:     113992 MSHR_MERGE:      37970
cpu3->cpu3_L1I RFO          ACCESS:          0 HIT:          0 MISS:          0 MSHR_MERGE:          0
cpu3->cpu3_L1I PREFETCH     ACCESS:          0 HIT:          0 MISS:          0 MSHR_MERGE:          0
cpu3->cpu3_L1I WRITE        ACCESS:          0 HIT:          0 MISS:          0 MSHR_MERGE:          0
cpu3->cpu3_L1I TRANSLATION  ACCESS:          0 HIT:          0 MISS:          0 MSHR_MERGE:          0
cpu3->cpu3_L1I PREFETCH REQUESTED:          0 ISSUED:          0 USEFUL:          0 USELESS:          0
cpu3->cpu3_L1I AVERAGE MISS LATENCY: 7 cycles
cpu3_L1I COHERENCE INVALIDATIONS:          0
cpu3_L1I COHERENCE WRITE-HIT OTHER-SHARER EVENTS:          0
cpu3_L1D COHERENCE INVALIDATIONS:          0
cpu3_L1D COHERENCE WRITE-HIT OTHER-SHARER EVENTS:          0
cpu3->cpu3_ITLB TOTAL        ACCESS:  274030169 HIT:  274028708 MISS:       1461 MSHR_MERGE:        681
cpu3->cpu3_ITLB LOAD         ACCESS:  274030169 HIT:  274028708 MISS:       1461 MSHR_MERGE:        681
cpu3->cpu3_ITLB RFO          ACCESS:          0 HIT:          0 MISS:          0 MSHR_MERGE:          0
cpu3->cpu3_ITLB PREFETCH     ACCESS:          0 HIT:          0 MISS:          0 MSHR_MERGE:          0
cpu3->cpu3_ITLB WRITE        ACCESS:          0 HIT:          0 MISS:          0 MSHR_MERGE:          0
cpu3->cpu3_ITLB TRANSLATION  ACCESS:          0 HIT:          0 MISS:          0 MSHR_MERGE:          0
cpu3->cpu3_ITLB PREFETCH REQUESTED:          0 ISSUED:          0 USEFUL:          0 USELESS:          0
cpu3->cpu3_ITLB AVERAGE MISS LATENCY: 4 cycles
cpu3_ITLB COHERENCE INVALIDATIONS:          0
cpu3_ITLB COHERENCE WRITE-HIT OTHER-SHARER EVENTS:          0
cpu3_DTLB COHERENCE INVALIDATIONS:          0
cpu3_DTLB COHERENCE WRITE-HIT OTHER-SHARER EVENTS:          0
cpu2->cpu2_STLB TOTAL        ACCESS:        784 HIT:        784 MISS:          0 MSHR_MERGE:          0
cpu2->cpu2_STLB LOAD         ACCESS:        784 HIT:        784 MISS:          0 MSHR_MERGE:          0
cpu2->cpu2_STLB RFO          ACCESS:          0 HIT:          0 MISS:          0 MSHR_MERGE:          0
cpu2->cpu2_STLB PREFETCH     ACCESS:          0 HIT:          0 MISS:          0 MSHR_MERGE:          0
cpu2->cpu2_STLB WRITE        ACCESS:          0 HIT:          0 MISS:          0 MSHR_MERGE:          0
cpu2->cpu2_STLB TRANSLATION  ACCESS:          0 HIT:          0 MISS:          0 MSHR_MERGE:          0
cpu2->cpu2_STLB PREFETCH REQUESTED:          0 ISSUED:          0 USEFUL:          0 USELESS:          0
cpu2->cpu2_STLB AVERAGE MISS LATENCY: - cycles
cpu2_STLB COHERENCE INVALIDATIONS:          0
cpu2_STLB COHERENCE WRITE-HIT OTHER-SHARER EVENTS:          0
cpu2->cpu2_L2C TOTAL        ACCESS:      80882 HIT:      80882 MISS:          0 MSHR_MERGE:          0
cpu2->cpu2_L2C LOAD         ACCESS:      80882 HIT:      80882 MISS:          0 MSHR_MERGE:          0
cpu2->cpu2_L2C RFO          ACCESS:          0 HIT:          0 MISS:          0 MSHR_MERGE:          0
cpu2->cpu2_L2C PREFETCH     ACCESS:          0 HIT:          0 MISS:          0 MSHR_MERGE:          0
cpu2->cpu2_L2C WRITE        ACCESS:          0 HIT:          0 MISS:          0 MSHR_MERGE:          0
cpu2->cpu2_L2C TRANSLATION  ACCESS:          0 HIT:          0 MISS:          0 MSHR_MERGE:          0
cpu2->cpu2_L2C PREFETCH REQUESTED:          0 ISSUED:          0 USEFUL:          0 USELESS:          0
cpu2->cpu2_L2C AVERAGE MISS LATENCY: - cycles
cpu2_L2C COHERENCE INVALIDATIONS:          0
cpu2_L2C COHERENCE WRITE-HIT OTHER-SHARER EVENTS:          0
cpu2->cpu2_L1I TOTAL        ACCESS:  316113330 HIT:  315997192 MISS:     116138 MSHR_MERGE:      35256
cpu2->cpu2_L1I LOAD         ACCESS:  316113330 HIT:  315997192 MISS:     116138 MSHR_MERGE:      35256
cpu2->cpu2_L1I RFO          ACCESS:          0 HIT:          0 MISS:          0 MSHR_MERGE:          0
cpu2->cpu2_L1I PREFETCH     ACCESS:          0 HIT:          0 MISS:          0 MSHR_MERGE:          0
cpu2->cpu2_L1I WRITE        ACCESS:          0 HIT:          0 MISS:          0 MSHR_MERGE:          0
cpu2->cpu2_L1I TRANSLATION  ACCESS:          0 HIT:          0 MISS:          0 MSHR_MERGE:          0
cpu2->cpu2_L1I PREFETCH REQUESTED:          0 ISSUED:          0 USEFUL:          0 USELESS:          0
cpu2->cpu2_L1I AVERAGE MISS LATENCY: 7 cycles
cpu2_L1I COHERENCE INVALIDATIONS:          0
cpu2_L1I COHERENCE WRITE-HIT OTHER-SHARER EVENTS:          0
cpu2_L1D COHERENCE INVALIDATIONS:          0
cpu2_L1D COHERENCE WRITE-HIT OTHER-SHARER EVENTS:          0
cpu2->cpu2_ITLB TOTAL        ACCESS:  254251226 HIT:  254249903 MISS:       1323 MSHR_MERGE:        539
cpu2->cpu2_ITLB LOAD         ACCESS:  254251226 HIT:  254249903 MISS:       1323 MSHR_MERGE:        539
cpu2->cpu2_ITLB RFO          ACCESS:          0 HIT:          0 MISS:          0 MSHR_MERGE:          0
cpu2->cpu2_ITLB PREFETCH     ACCESS:          0 HIT:          0 MISS:          0 MSHR_MERGE:          0
cpu2->cpu2_ITLB WRITE        ACCESS:          0 HIT:          0 MISS:          0 MSHR_MERGE:          0
cpu2->cpu2_ITLB TRANSLATION  ACCESS:          0 HIT:          0 MISS:          0 MSHR_MERGE:          0
cpu2->cpu2_ITLB PREFETCH REQUESTED:          0 ISSUED:          0 USEFUL:          0 USELESS:          0
cpu2->cpu2_ITLB AVERAGE MISS LATENCY: 4 cycles
cpu2_ITLB COHERENCE INVALIDATIONS:          0
cpu2_ITLB COHERENCE WRITE-HIT OTHER-SHARER EVENTS:          0
cpu2_DTLB COHERENCE INVALIDATIONS:          0
cpu2_DTLB COHERENCE WRITE-HIT OTHER-SHARER EVENTS:          0
cpu1->cpu1_STLB TOTAL        ACCESS:    1005200 HIT:     969922 MISS:      35278 MSHR_MERGE:          0
cpu1->cpu1_STLB LOAD         ACCESS:    1005200 HIT:     969922 MISS:      35278 MSHR_MERGE:          0
cpu1->cpu1_STLB RFO          ACCESS:          0 HIT:          0 MISS:          0 MSHR_MERGE:          0
cpu1->cpu1_STLB PREFETCH     ACCESS:          0 HIT:          0 MISS:          0 MSHR_MERGE:          0
cpu1->cpu1_STLB WRITE        ACCESS:          0 HIT:          0 MISS:          0 MSHR_MERGE:          0
cpu1->cpu1_STLB TRANSLATION  ACCESS:          0 HIT:          0 MISS:          0 MSHR_MERGE:          0
cpu1->cpu1_STLB PREFETCH REQUESTED:          0 ISSUED:          0 USEFUL:          0 USELESS:          0
cpu1->cpu1_STLB AVERAGE MISS LATENCY: 495.1 cycles
cpu1_STLB COHERENCE INVALIDATIONS:          0
cpu1_STLB COHERENCE WRITE-HIT OTHER-SHARER EVENTS:          0
cpu1->cpu1_L2C TOTAL        ACCESS:   14567418 HIT:    5839795 MISS:    8727623 MSHR_MERGE:          0
cpu1->cpu1_L2C LOAD         ACCESS:   14512697 HIT:    5839795 MISS:    8672902 MSHR_MERGE:          0
cpu1->cpu1_L2C RFO          ACCESS:          0 HIT:          0 MISS:          0 MSHR_MERGE:          0
cpu1->cpu1_L2C PREFETCH     ACCESS:          0 HIT:          0 MISS:          0 MSHR_MERGE:          0
cpu1->cpu1_L2C WRITE        ACCESS:          0 HIT:          0 MISS:          0 MSHR_MERGE:          0
cpu1->cpu1_L2C TRANSLATION  ACCESS:      54721 HIT:          0 MISS:      54721 MSHR_MERGE:          0
cpu1->cpu1_L2C PREFETCH REQUESTED:          0 ISSUED:          0 USEFUL:          0 USELESS:          0
cpu1->cpu1_L2C AVERAGE MISS LATENCY: 188.2 cycles
cpu1_L2C COHERENCE INVALIDATIONS:          0
cpu1_L2C COHERENCE WRITE-HIT OTHER-SHARER EVENTS:          0
cpu1->cpu1_L1I TOTAL        ACCESS:   53368901 HIT:   36786586 MISS:   16582315 MSHR_MERGE:    2069618
cpu1->cpu1_L1I LOAD         ACCESS:   53368901 HIT:   36786586 MISS:   16582315 MSHR_MERGE:    2069618
cpu1->cpu1_L1I RFO          ACCESS:          0 HIT:          0 MISS:          0 MSHR_MERGE:          0
cpu1->cpu1_L1I PREFETCH     ACCESS:          0 HIT:          0 MISS:          0 MSHR_MERGE:          0
cpu1->cpu1_L1I WRITE        ACCESS:          0 HIT:          0 MISS:          0 MSHR_MERGE:          0
cpu1->cpu1_L1I TRANSLATION  ACCESS:          0 HIT:          0 MISS:          0 MSHR_MERGE:          0
cpu1->cpu1_L1I PREFETCH REQUESTED:          0 ISSUED:          0 USEFUL:          0 USELESS:          0
cpu1->cpu1_L1I AVERAGE MISS LATENCY: 119.7 cycles
cpu1_L1I COHERENCE INVALIDATIONS:          0
cpu1_L1I COHERENCE WRITE-HIT OTHER-SHARER EVENTS:          0
cpu1->cpu1_L1D TOTAL        ACCESS:      70569 HIT:      15848 MISS:      54721 MSHR_MERGE:          0
cpu1->cpu1_L1D LOAD         ACCESS:          0 HIT:          0 MISS:          0 MSHR_MERGE:          0
cpu1->cpu1_L1D RFO          ACCESS:          0 HIT:          0 MISS:          0 MSHR_MERGE:          0
cpu1->cpu1_L1D PREFETCH     ACCESS:          0 HIT:          0 MISS:          0 MSHR_MERGE:          0
cpu1->cpu1_L1D WRITE        ACCESS:          0 HIT:          0 MISS:          0 MSHR_MERGE:          0
cpu1->cpu1_L1D TRANSLATION  ACCESS:      70569 HIT:      15848 MISS:      54721 MSHR_MERGE:          0
cpu1->cpu1_L1D PREFETCH REQUESTED:          0 ISSUED:          0 USEFUL:          0 USELESS:          0
cpu1->cpu1_L1D AVERAGE MISS LATENCY: 311.7 cycles
cpu1_L1D COHERENCE INVALIDATIONS:          0
cpu1_L1D COHERENCE WRITE-HIT OTHER-SHARER EVENTS:          0
cpu1->cpu1_ITLB TOTAL        ACCESS:   52478991 HIT:   51428467 MISS:    1050524 MSHR_MERGE:      45324
cpu1->cpu1_ITLB LOAD         ACCESS:   52478991 HIT:   51428467 MISS:    1050524 MSHR_MERGE:      45324
cpu1->cpu1_ITLB RFO          ACCESS:          0 HIT:          0 MISS:          0 MSHR_MERGE:          0
cpu1->cpu1_ITLB PREFETCH     ACCESS:          0 HIT:          0 MISS:          0 MSHR_MERGE:          0
cpu1->cpu1_ITLB WRITE        ACCESS:          0 HIT:          0 MISS:          0 MSHR_MERGE:          0
cpu1->cpu1_ITLB TRANSLATION  ACCESS:          0 HIT:          0 MISS:          0 MSHR_MERGE:          0
cpu1->cpu1_ITLB PREFETCH REQUESTED:          0 ISSUED:          0 USEFUL:          0 USELESS:          0
cpu1->cpu1_ITLB AVERAGE MISS LATENCY: 21.41 cycles
cpu1_ITLB COHERENCE INVALIDATIONS:          0
cpu1_ITLB COHERENCE WRITE-HIT OTHER-SHARER EVENTS:          0
cpu1_DTLB COHERENCE INVALIDATIONS:          0
cpu1_DTLB COHERENCE WRITE-HIT OTHER-SHARER EVENTS:          0
cpu0->cpu0_STLB TOTAL        ACCESS:    4676928 HIT:    4529422 MISS:     147506 MSHR_MERGE:          0
cpu0->cpu0_STLB LOAD         ACCESS:    4676928 HIT:    4529422 MISS:     147506 MSHR_MERGE:          0
cpu0->cpu0_STLB RFO          ACCESS:          0 HIT:          0 MISS:          0 MSHR_MERGE:          0
cpu0->cpu0_STLB PREFETCH     ACCESS:          0 HIT:          0 MISS:          0 MSHR_MERGE:          0
cpu0->cpu0_STLB WRITE        ACCESS:          0 HIT:          0 MISS:          0 MSHR_MERGE:          0
cpu0->cpu0_STLB TRANSLATION  ACCESS:          0 HIT:          0 MISS:          0 MSHR_MERGE:          0
cpu0->cpu0_STLB PREFETCH REQUESTED:          0 ISSUED:          0 USEFUL:          0 USELESS:          0
cpu0->cpu0_STLB AVERAGE MISS LATENCY: 613.8 cycles
cpu0_STLB COHERENCE INVALIDATIONS:          0
cpu0_STLB COHERENCE WRITE-HIT OTHER-SHARER EVENTS:          0
cpu0->cpu0_L2C TOTAL        ACCESS:   32531609 HIT:   14825716 MISS:   17705893 MSHR_MERGE:          0
cpu0->cpu0_L2C LOAD         ACCESS:   21173912 HIT:    6701378 MISS:   14472534 MSHR_MERGE:          0
cpu0->cpu0_L2C RFO          ACCESS:    3510826 HIT:     510936 MISS:    2999890 MSHR_MERGE:          0
cpu0->cpu0_L2C PREFETCH     ACCESS:          0 HIT:          0 MISS:          0 MSHR_MERGE:          0
cpu0->cpu0_L2C WRITE        ACCESS:    7574760 HIT:    7573736 MISS:       1024 MSHR_MERGE:          0
cpu0->cpu0_L2C TRANSLATION  ACCESS:     272111 HIT:      39666 MISS:     232445 MSHR_MERGE:          0
cpu0->cpu0_L2C PREFETCH REQUESTED:          0 ISSUED:          0 USEFUL:          0 USELESS:          0
cpu0->cpu0_L2C AVERAGE MISS LATENCY: 164.5 cycles
cpu0_L2C COHERENCE INVALIDATIONS:          0
cpu0_L2C COHERENCE WRITE-HIT OTHER-SHARER EVENTS:          0
cpu0->cpu0_L1I TOTAL        ACCESS:   31371522 HIT:   31359370 MISS:      12152 MSHR_MERGE:       5925
cpu0->cpu0_L1I LOAD         ACCESS:   31371522 HIT:   31359370 MISS:      12152 MSHR_MERGE:       5925
cpu0->cpu0_L1I RFO          ACCESS:          0 HIT:          0 MISS:          0 MSHR_MERGE:          0
cpu0->cpu0_L1I PREFETCH     ACCESS:          0 HIT:          0 MISS:          0 MSHR_MERGE:          0
cpu0->cpu0_L1I WRITE        ACCESS:          0 HIT:          0 MISS:          0 MSHR_MERGE:          0
cpu0->cpu0_L1I TRANSLATION  ACCESS:          0 HIT:          0 MISS:          0 MSHR_MERGE:          0
cpu0->cpu0_L1I PREFETCH REQUESTED:          0 ISSUED:          0 USEFUL:          0 USELESS:          0
cpu0->cpu0_L1I AVERAGE MISS LATENCY: 269.3 cycles
cpu0_L1I COHERENCE INVALIDATIONS:          0
cpu0_L1I COHERENCE WRITE-HIT OTHER-SHARER EVENTS:          0
cpu0->cpu0_L1D TOTAL        ACCESS:  102618667 HIT:   74296770 MISS:   28321897 MSHR_MERGE:    3369401
cpu0->cpu0_L1D LOAD         ACCESS:   43872520 HIT:   21930930 MISS:   21941590 MSHR_MERGE:     773600
cpu0->cpu0_L1D RFO          ACCESS:          0 HIT:          0 MISS:          0 MSHR_MERGE:          0
cpu0->cpu0_L1D PREFETCH     ACCESS:          0 HIT:          0 MISS:          0 MSHR_MERGE:          0
cpu0->cpu0_L1D WRITE        ACCESS:   58445978 HIT:   52343398 MISS:    6102580 MSHR_MERGE:    2590185
cpu0->cpu0_L1D TRANSLATION  ACCESS:     300169 HIT:      22442 MISS:     277727 MSHR_MERGE:       5616
cpu0->cpu0_L1D PREFETCH REQUESTED:          0 ISSUED:          0 USEFUL:          0 USELESS:          0
cpu0->cpu0_L1D AVERAGE MISS LATENCY: 124.4 cycles
cpu0_L1D COHERENCE INVALIDATIONS:          0
cpu0_L1D COHERENCE WRITE-HIT OTHER-SHARER EVENTS:          0
cpu0->cpu0_ITLB TOTAL        ACCESS:   30178941 HIT:   30177889 MISS:       1052 MSHR_MERGE:        703
cpu0->cpu0_ITLB LOAD         ACCESS:   30178941 HIT:   30177889 MISS:       1052 MSHR_MERGE:        703
cpu0->cpu0_ITLB RFO          ACCESS:          0 HIT:          0 MISS:          0 MSHR_MERGE:          0
cpu0->cpu0_ITLB PREFETCH     ACCESS:          0 HIT:          0 MISS:          0 MSHR_MERGE:          0
cpu0->cpu0_ITLB WRITE        ACCESS:          0 HIT:          0 MISS:          0 MSHR_MERGE:          0
cpu0->cpu0_ITLB TRANSLATION  ACCESS:          0 HIT:          0 MISS:          0 MSHR_MERGE:          0
cpu0->cpu0_ITLB PREFETCH REQUESTED:          0 ISSUED:          0 USEFUL:          0 USELESS:          0
cpu0->cpu0_ITLB AVERAGE MISS LATENCY: 491.6 cycles
cpu0_ITLB COHERENCE INVALIDATIONS:          0
cpu0_ITLB COHERENCE WRITE-HIT OTHER-SHARER EVENTS:          0
cpu0->cpu0_DTLB TOTAL        ACCESS:   99026286 HIT:   94144572 MISS:    4881714 MSHR_MERGE:     205135
cpu0->cpu0_DTLB LOAD         ACCESS:   99026286 HIT:   94144572 MISS:    4881714 MSHR_MERGE:     205135
cpu0->cpu0_DTLB RFO          ACCESS:          0 HIT:          0 MISS:          0 MSHR_MERGE:          0
cpu0->cpu0_DTLB PREFETCH     ACCESS:          0 HIT:          0 MISS:          0 MSHR_MERGE:          0
cpu0->cpu0_DTLB WRITE        ACCESS:          0 HIT:          0 MISS:          0 MSHR_MERGE:          0
cpu0->cpu0_DTLB TRANSLATION  ACCESS:          0 HIT:          0 MISS:          0 MSHR_MERGE:          0
cpu0->cpu0_DTLB PREFETCH REQUESTED:          0 ISSUED:          0 USEFUL:          0 USELESS:          0
cpu0->cpu0_DTLB AVERAGE MISS LATENCY: 23.36 cycles
cpu0_DTLB COHERENCE INVALIDATIONS:          0
cpu0_DTLB COHERENCE WRITE-HIT OTHER-SHARER EVENTS:          0
cpu0->LLC TOTAL        ACCESS:   24130139 HIT:   12241291 MISS:   11888848 MSHR_MERGE:        112
cpu0->LLC LOAD         ACCESS:   14472507 HIT:    7995855 MISS:    6476652 MSHR_MERGE:         80
cpu0->LLC RFO          ACCESS:    2999889 HIT:     931921 MISS:    2067968 MSHR_MERGE:         32
cpu0->LLC PREFETCH     ACCESS:          0 HIT:          0 MISS:          0 MSHR_MERGE:          0
cpu0->LLC WRITE        ACCESS:    6425298 HIT:    3309490 MISS:    3115808 MSHR_MERGE:          0
cpu0->LLC TRANSLATION  ACCESS:     232445 HIT:       4025 MISS:     228420 MSHR_MERGE:          0
cpu0->LLC PREFETCH REQUESTED:          0 ISSUED:          0 USEFUL:          0 USELESS:          0
cpu0->LLC AVERAGE MISS LATENCY: 350.9 cycles
cpu1->LLC TOTAL        ACCESS:    8727623 HIT:    3533806 MISS:    5193817 MSHR_MERGE:         81
cpu1->LLC LOAD         ACCESS:    8672902 HIT:    3533739 MISS:    5139163 MSHR_MERGE:         81
cpu1->LLC RFO          ACCESS:          0 HIT:          0 MISS:          0 MSHR_MERGE:          0
cpu1->LLC PREFETCH     ACCESS:          0 HIT:          0 MISS:          0 MSHR_MERGE:          0
cpu1->LLC WRITE        ACCESS:          0 HIT:          0 MISS:          0 MSHR_MERGE:          0
cpu1->LLC TRANSLATION  ACCESS:      54721 HIT:         67 MISS:      54654 MSHR_MERGE:          0
cpu1->LLC PREFETCH REQUESTED:          0 ISSUED:          0 USEFUL:          0 USELESS:          0
cpu1->LLC AVERAGE MISS LATENCY: 803.3 cycles
LLC COHERENCE INVALIDATIONS:     689502
LLC COHERENCE WRITE-HIT OTHER-SHARER EVENTS:     689502

DRAM Statistics

Channel 0 RQ ROW_BUFFER_HIT:     268967
  ROW_BUFFER_MISS:   13681174
  AVG DBUS CONGESTED CYCLE: 6.438
Channel 0 WQ ROW_BUFFER_HIT:     317199
  ROW_BUFFER_MISS:    2882299
  FULL:          6
Channel 0 REFRESHES ISSUED:      45963

VMEM ALIASED FILLS (cross-CPU shared-page hits): 91751
