[VMEM] WARNING: physical memory size is smaller than virtual memory size.

*** ChampSim Multicore Out-of-Order Simulator ***
Warmup Instructions: 50000000
Simulation Instructions: 100000000
Number of CPUs: 8
Page size: 4096

Off-chip DRAM Size: 16 GiB Channels: 1 Width: 64-bit Data Rate: 3205 MT/s
Heartbeat CPU 4 instructions: 10000001 cycles: 2509177 heartbeat IPC: 3.985 cumulative IPC: 3.985 (Simulation time: 00 hr 10 min 47 sec)
Heartbeat CPU 5 instructions: 10000003 cycles: 2509276 heartbeat IPC: 3.985 cumulative IPC: 3.985 (Simulation time: 00 hr 10 min 47 sec)
Heartbeat CPU 3 instructions: 10000003 cycles: 2509389 heartbeat IPC: 3.985 cumulative IPC: 3.985 (Simulation time: 00 hr 10 min 48 sec)
Heartbeat CPU 6 instructions: 10000000 cycles: 2509599 heartbeat IPC: 3.985 cumulative IPC: 3.985 (Simulation time: 00 hr 10 min 48 sec)
Heartbeat CPU 7 instructions: 10000002 cycles: 2509727 heartbeat IPC: 3.984 cumulative IPC: 3.984 (Simulation time: 00 hr 10 min 48 sec)
Heartbeat CPU 2 instructions: 10000001 cycles: 2510814 heartbeat IPC: 3.983 cumulative IPC: 3.983 (Simulation time: 00 hr 10 min 48 sec)
Heartbeat CPU 1 instructions: 10000001 cycles: 4696888 heartbeat IPC: 2.129 cumulative IPC: 2.129 (Simulation time: 00 hr 20 min 04 sec)
Heartbeat CPU 4 instructions: 20000004 cycles: 5009522 heartbeat IPC: 3.999 cumulative IPC: 3.992 (Simulation time: 00 hr 21 min 23 sec)
Heartbeat CPU 3 instructions: 20000004 cycles: 5009607 heartbeat IPC: 4 cumulative IPC: 3.992 (Simulation time: 00 hr 21 min 23 sec)
Heartbeat CPU 5 instructions: 20000006 cycles: 5009614 heartbeat IPC: 3.999 cumulative IPC: 3.992 (Simulation time: 00 hr 21 min 23 sec)
Heartbeat CPU 6 instructions: 20000001 cycles: 5009819 heartbeat IPC: 4 cumulative IPC: 3.992 (Simulation time: 00 hr 21 min 23 sec)
Heartbeat CPU 7 instructions: 20000003 cycles: 5009948 heartbeat IPC: 4 cumulative IPC: 3.992 (Simulation time: 00 hr 21 min 23 sec)
Heartbeat CPU 2 instructions: 20000003 cycles: 5011656 heartbeat IPC: 3.999 cumulative IPC: 3.991 (Simulation time: 00 hr 21 min 24 sec)
Heartbeat CPU 4 instructions: 30000004 cycles: 7509522 heartbeat IPC: 4 cumulative IPC: 3.995 (Simulation time: 00 hr 32 min 00 sec)
Heartbeat CPU 3 instructions: 30000004 cycles: 7509607 heartbeat IPC: 4 cumulative IPC: 3.995 (Simulation time: 00 hr 32 min 00 sec)
Heartbeat CPU 5 instructions: 30000006 cycles: 7509614 heartbeat IPC: 4 cumulative IPC: 3.995 (Simulation time: 00 hr 32 min 00 sec)
Heartbeat CPU 6 instructions: 30000001 cycles: 7509819 heartbeat IPC: 4 cumulative IPC: 3.995 (Simulation time: 00 hr 32 min 00 sec)
Heartbeat CPU 7 instructions: 30000003 cycles: 7509948 heartbeat IPC: 4 cumulative IPC: 3.995 (Simulation time: 00 hr 32 min 00 sec)
Heartbeat CPU 2 instructions: 30000003 cycles: 7511656 heartbeat IPC: 4 cumulative IPC: 3.994 (Simulation time: 00 hr 32 min 01 sec)
Heartbeat CPU 1 instructions: 20000001 cycles: 9273400 heartbeat IPC: 2.185 cumulative IPC: 2.157 (Simulation time: 00 hr 39 min 36 sec)
Heartbeat CPU 4 instructions: 40000004 cycles: 10009522 heartbeat IPC: 4 cumulative IPC: 3.996 (Simulation time: 00 hr 42 min 47 sec)
Heartbeat CPU 3 instructions: 40000004 cycles: 10009607 heartbeat IPC: 4 cumulative IPC: 3.996 (Simulation time: 00 hr 42 min 47 sec)
Heartbeat CPU 5 instructions: 40000006 cycles: 10009614 heartbeat IPC: 4 cumulative IPC: 3.996 (Simulation time: 00 hr 42 min 47 sec)
Heartbeat CPU 6 instructions: 40000001 cycles: 10009819 heartbeat IPC: 4 cumulative IPC: 3.996 (Simulation time: 00 hr 42 min 47 sec)
Heartbeat CPU 7 instructions: 40000003 cycles: 10009948 heartbeat IPC: 4 cumulative IPC: 3.996 (Simulation time: 00 hr 42 min 47 sec)
Heartbeat CPU 2 instructions: 40000003 cycles: 10011656 heartbeat IPC: 4 cumulative IPC: 3.995 (Simulation time: 00 hr 42 min 48 sec)
*** Reached end of trace: (2, "traces/ocean_8t/ocean2.champsimtrace")
*** Reached end of trace: (5, "traces/ocean_8t/ocean5.champsimtrace")
*** Reached end of trace: (4, "traces/ocean_8t/ocean4.champsimtrace")
*** Reached end of trace: (6, "traces/ocean_8t/ocean6.champsimtrace")
*** Reached end of trace: (3, "traces/ocean_8t/ocean3.champsimtrace")
*** Reached end of trace: (7, "traces/ocean_8t/ocean7.champsimtrace")
Warmup finished CPU 4 instructions: 50000002 cycles: 12511532 cumulative IPC: 3.996 (Simulation time: 00 hr 53 min 36 sec)
Heartbeat CPU 4 instructions: 50000006 cycles: 12511533 heartbeat IPC: 3.997 cumulative IPC: 3.996 (Simulation time: 00 hr 53 min 36 sec)
Warmup finished CPU 3 instructions: 50000000 cycles: 12511606 cumulative IPC: 3.996 (Simulation time: 00 hr 53 min 36 sec)
Heartbeat CPU 3 instructions: 50000004 cycles: 12511607 heartbeat IPC: 3.997 cumulative IPC: 3.996 (Simulation time: 00 hr 53 min 36 sec)
Warmup finished CPU 5 instructions: 50000001 cycles: 12511615 cumulative IPC: 3.996 (Simulation time: 00 hr 53 min 36 sec)
Heartbeat CPU 5 instructions: 50000009 cycles: 12511617 heartbeat IPC: 3.997 cumulative IPC: 3.996 (Simulation time: 00 hr 53 min 36 sec)
Heartbeat CPU 6 instructions: 50000003 cycles: 12511821 heartbeat IPC: 3.997 cumulative IPC: 3.996 (Simulation time: 00 hr 53 min 36 sec)
Warmup finished CPU 6 instructions: 50000003 cycles: 12511821 cumulative IPC: 3.996 (Simulation time: 00 hr 53 min 36 sec)
Heartbeat CPU 7 instructions: 50000003 cycles: 12511954 heartbeat IPC: 3.997 cumulative IPC: 3.996 (Simulation time: 00 hr 53 min 36 sec)
Warmup finished CPU 7 instructions: 50000003 cycles: 12511954 cumulative IPC: 3.996 (Simulation time: 00 hr 53 min 36 sec)
Warmup finished CPU 2 instructions: 50000002 cycles: 12514464 cumulative IPC: 3.995 (Simulation time: 00 hr 53 min 37 sec)
Heartbeat CPU 2 instructions: 50000006 cycles: 12514465 heartbeat IPC: 3.996 cumulative IPC: 3.995 (Simulation time: 00 hr 53 min 37 sec)
Heartbeat CPU 1 instructions: 30000002 cycles: 14625840 heartbeat IPC: 1.868 cumulative IPC: 2.051 (Simulation time: 01 hr 02 min 43 sec)
Heartbeat CPU 4 instructions: 60000006 cycles: 15011533 heartbeat IPC: 4 cumulative IPC: 3.997 (Simulation time: 01 hr 04 min 20 sec)
Heartbeat CPU 3 instructions: 60000004 cycles: 15011607 heartbeat IPC: 4 cumulative IPC: 3.997 (Simulation time: 01 hr 04 min 20 sec)
Heartbeat CPU 5 instructions: 60000009 cycles: 15011617 heartbeat IPC: 4 cumulative IPC: 3.997 (Simulation time: 01 hr 04 min 20 sec)
Heartbeat CPU 6 instructions: 60000003 cycles: 15011821 heartbeat IPC: 4 cumulative IPC: 3.997 (Simulation time: 01 hr 04 min 20 sec)
Heartbeat CPU 7 instructions: 60000003 cycles: 15011954 heartbeat IPC: 4 cumulative IPC: 3.997 (Simulation time: 01 hr 04 min 20 sec)
Heartbeat CPU 2 instructions: 60000006 cycles: 15014465 heartbeat IPC: 4 cumulative IPC: 3.996 (Simulation time: 01 hr 04 min 20 sec)
Heartbeat CPU 4 instructions: 70000006 cycles: 17511533 heartbeat IPC: 4 cumulative IPC: 3.997 (Simulation time: 01 hr 14 min 55 sec)
Heartbeat CPU 3 instructions: 70000004 cycles: 17511607 heartbeat IPC: 4 cumulative IPC: 3.997 (Simulation time: 01 hr 14 min 55 sec)
Heartbeat CPU 5 instructions: 70000009 cycles: 17511617 heartbeat IPC: 4 cumulative IPC: 3.997 (Simulation time: 01 hr 14 min 55 sec)
Heartbeat CPU 6 instructions: 70000003 cycles: 17511821 heartbeat IPC: 4 cumulative IPC: 3.997 (Simulation time: 01 hr 14 min 55 sec)
Heartbeat CPU 7 instructions: 70000003 cycles: 17511954 heartbeat IPC: 4 cumulative IPC: 3.997 (Simulation time: 01 hr 14 min 55 sec)
Heartbeat CPU 2 instructions: 70000006 cycles: 17514465 heartbeat IPC: 4 cumulative IPC: 3.997 (Simulation time: 01 hr 14 min 55 sec)
Heartbeat CPU 1 instructions: 40000003 cycles: 18873504 heartbeat IPC: 2.354 cumulative IPC: 2.119 (Simulation time: 01 hr 20 min 39 sec)
Heartbeat CPU 4 instructions: 80000006 cycles: 20011533 heartbeat IPC: 4 cumulative IPC: 3.998 (Simulation time: 01 hr 25 min 40 sec)
Heartbeat CPU 3 instructions: 80000004 cycles: 20011607 heartbeat IPC: 4 cumulative IPC: 3.998 (Simulation time: 01 hr 25 min 40 sec)
Heartbeat CPU 5 instructions: 80000009 cycles: 20011617 heartbeat IPC: 4 cumulative IPC: 3.998 (Simulation time: 01 hr 25 min 40 sec)
Heartbeat CPU 6 instructions: 80000003 cycles: 20011821 heartbeat IPC: 4 cumulative IPC: 3.998 (Simulation time: 01 hr 25 min 40 sec)
Heartbeat CPU 7 instructions: 80000003 cycles: 20011954 heartbeat IPC: 4 cumulative IPC: 3.998 (Simulation time: 01 hr 25 min 40 sec)
Heartbeat CPU 2 instructions: 80000006 cycles: 20014465 heartbeat IPC: 4 cumulative IPC: 3.997 (Simulation time: 01 hr 25 min 41 sec)
*** Reached end of trace: (1, "traces/ocean_8t/ocean1.champsimtrace")
Heartbeat CPU 0 instructions: 10000000 cycles: 20901780 heartbeat IPC: 0.4784 cumulative IPC: 0.4784 (Simulation time: 01 hr 29 min 31 sec)
Heartbeat CPU 4 instructions: 90000006 cycles: 22511533 heartbeat IPC: 4 cumulative IPC: 3.998 (Simulation time: 01 hr 36 min 17 sec)
Heartbeat CPU 3 instructions: 90000004 cycles: 22511607 heartbeat IPC: 4 cumulative IPC: 3.998 (Simulation time: 01 hr 36 min 17 sec)
Heartbeat CPU 5 instructions: 90000009 cycles: 22511617 heartbeat IPC: 4 cumulative IPC: 3.998 (Simulation time: 01 hr 36 min 17 sec)
Heartbeat CPU 6 instructions: 90000003 cycles: 22511821 heartbeat IPC: 4 cumulative IPC: 3.998 (Simulation time: 01 hr 36 min 17 sec)
Heartbeat CPU 7 instructions: 90000003 cycles: 22511954 heartbeat IPC: 4 cumulative IPC: 3.998 (Simulation time: 01 hr 36 min 18 sec)
Heartbeat CPU 2 instructions: 90000006 cycles: 22514465 heartbeat IPC: 4 cumulative IPC: 3.997 (Simulation time: 01 hr 36 min 18 sec)
*** Reached end of trace: (2, "traces/ocean_8t/ocean2.champsimtrace")
*** Reached end of trace: (5, "traces/ocean_8t/ocean5.champsimtrace")
*** Reached end of trace: (4, "traces/ocean_8t/ocean4.champsimtrace")
*** Reached end of trace: (6, "traces/ocean_8t/ocean6.champsimtrace")
*** Reached end of trace: (3, "traces/ocean_8t/ocean3.champsimtrace")
Warmup finished CPU 1 instructions: 50000002 cycles: 22750492 cumulative IPC: 2.198 (Simulation time: 01 hr 37 min 18 sec)
Heartbeat CPU 1 instructions: 50000006 cycles: 22750493 heartbeat IPC: 2.579 cumulative IPC: 2.198 (Simulation time: 01 hr 37 min 18 sec)
*** Reached end of trace: (7, "traces/ocean_8t/ocean7.champsimtrace")
Heartbeat CPU 4 instructions: 100000006 cycles: 25011533 heartbeat IPC: 4 cumulative IPC: 3.998 (Simulation time: 01 hr 47 min 06 sec)
Heartbeat CPU 3 instructions: 100000004 cycles: 25011607 heartbeat IPC: 4 cumulative IPC: 3.998 (Simulation time: 01 hr 47 min 06 sec)
Heartbeat CPU 5 instructions: 100000009 cycles: 25011617 heartbeat IPC: 4 cumulative IPC: 3.998 (Simulation time: 01 hr 47 min 06 sec)
Heartbeat CPU 6 instructions: 100000003 cycles: 25011821 heartbeat IPC: 4 cumulative IPC: 3.998 (Simulation time: 01 hr 47 min 06 sec)
Heartbeat CPU 7 instructions: 100000003 cycles: 25011954 heartbeat IPC: 4 cumulative IPC: 3.998 (Simulation time: 01 hr 47 min 06 sec)
Heartbeat CPU 2 instructions: 100000006 cycles: 25014465 heartbeat IPC: 4 cumulative IPC: 3.998 (Simulation time: 01 hr 47 min 07 sec)
Heartbeat CPU 1 instructions: 60000009 cycles: 26853066 heartbeat IPC: 2.437 cumulative IPC: 2.234 (Simulation time: 01 hr 54 min 42 sec)
Heartbeat CPU 4 instructions: 110000006 cycles: 27511533 heartbeat IPC: 4 cumulative IPC: 3.998 (Simulation time: 01 hr 57 min 20 sec)
Heartbeat CPU 3 instructions: 110000004 cycles: 27511607 heartbeat IPC: 4 cumulative IPC: 3.998 (Simulation time: 01 hr 57 min 20 sec)
Heartbeat CPU 5 instructions: 110000009 cycles: 27511617 heartbeat IPC: 4 cumulative IPC: 3.998 (Simulation time: 01 hr 57 min 20 sec)
Heartbeat CPU 6 instructions: 110000003 cycles: 27511821 heartbeat IPC: 4 cumulative IPC: 3.998 (Simulation time: 01 hr 57 min 20 sec)
Heartbeat CPU 7 instructions: 110000003 cycles: 27511954 heartbeat IPC: 4 cumulative IPC: 3.998 (Simulation time: 01 hr 57 min 20 sec)
Heartbeat CPU 2 instructions: 110000006 cycles: 27514465 heartbeat IPC: 4 cumulative IPC: 3.998 (Simulation time: 01 hr 57 min 20 sec)
Heartbeat CPU 4 instructions: 120000006 cycles: 30011533 heartbeat IPC: 4 cumulative IPC: 3.998 (Simulation time: 02 hr 07 min 19 sec)
Heartbeat CPU 3 instructions: 120000004 cycles: 30011607 heartbeat IPC: 4 cumulative IPC: 3.998 (Simulation time: 02 hr 07 min 19 sec)
Heartbeat CPU 5 instructions: 120000009 cycles: 30011617 heartbeat IPC: 4 cumulative IPC: 3.998 (Simulation time: 02 hr 07 min 19 sec)
Heartbeat CPU 6 instructions: 120000003 cycles: 30011821 heartbeat IPC: 4 cumulative IPC: 3.998 (Simulation time: 02 hr 07 min 19 sec)
Heartbeat CPU 7 instructions: 120000003 cycles: 30011954 heartbeat IPC: 4 cumulative IPC: 3.998 (Simulation time: 02 hr 07 min 19 sec)
Heartbeat CPU 2 instructions: 120000006 cycles: 30014465 heartbeat IPC: 4 cumulative IPC: 3.998 (Simulation time: 02 hr 07 min 19 sec)
Heartbeat CPU 1 instructions: 70000009 cycles: 31030402 heartbeat IPC: 2.394 cumulative IPC: 2.256 (Simulation time: 02 hr 11 min 22 sec)
Heartbeat CPU 4 instructions: 130000006 cycles: 32511533 heartbeat IPC: 4 cumulative IPC: 3.999 (Simulation time: 02 hr 17 min 14 sec)
Heartbeat CPU 3 instructions: 130000004 cycles: 32511607 heartbeat IPC: 4 cumulative IPC: 3.999 (Simulation time: 02 hr 17 min 15 sec)
Heartbeat CPU 5 instructions: 130000009 cycles: 32511617 heartbeat IPC: 4 cumulative IPC: 3.999 (Simulation time: 02 hr 17 min 15 sec)
Heartbeat CPU 6 instructions: 130000003 cycles: 32511821 heartbeat IPC: 4 cumulative IPC: 3.999 (Simulation time: 02 hr 17 min 15 sec)
Heartbeat CPU 7 instructions: 130000003 cycles: 32511954 heartbeat IPC: 4 cumulative IPC: 3.999 (Simulation time: 02 hr 17 min 15 sec)
Heartbeat CPU 2 instructions: 130000006 cycles: 32514465 heartbeat IPC: 4 cumulative IPC: 3.998 (Simulation time: 02 hr 17 min 15 sec)
*** Reached end of trace: (2, "traces/ocean_8t/ocean2.champsimtrace")
*** Reached end of trace: (5, "traces/ocean_8t/ocean5.champsimtrace")
*** Reached end of trace: (4, "traces/ocean_8t/ocean4.champsimtrace")
*** Reached end of trace: (6, "traces/ocean_8t/ocean6.champsimtrace")
*** Reached end of trace: (3, "traces/ocean_8t/ocean3.champsimtrace")
*** Reached end of trace: (7, "traces/ocean_8t/ocean7.champsimtrace")
Heartbeat CPU 4 instructions: 140000006 cycles: 35011533 heartbeat IPC: 4 cumulative IPC: 3.999 (Simulation time: 02 hr 27 min 11 sec)
Heartbeat CPU 3 instructions: 140000004 cycles: 35011607 heartbeat IPC: 4 cumulative IPC: 3.999 (Simulation time: 02 hr 27 min 11 sec)
Heartbeat CPU 5 instructions: 140000009 cycles: 35011617 heartbeat IPC: 4 cumulative IPC: 3.999 (Simulation time: 02 hr 27 min 11 sec)
Heartbeat CPU 6 instructions: 140000003 cycles: 35011821 heartbeat IPC: 4 cumulative IPC: 3.999 (Simulation time: 02 hr 27 min 11 sec)
Heartbeat CPU 7 instructions: 140000003 cycles: 35011954 heartbeat IPC: 4 cumulative IPC: 3.999 (Simulation time: 02 hr 27 min 11 sec)
Heartbeat CPU 2 instructions: 140000006 cycles: 35014465 heartbeat IPC: 4 cumulative IPC: 3.998 (Simulation time: 02 hr 27 min 11 sec)
Heartbeat CPU 1 instructions: 80000009 cycles: 36595574 heartbeat IPC: 1.797 cumulative IPC: 2.186 (Simulation time: 02 hr 33 min 36 sec)
Heartbeat CPU 4 instructions: 150000006 cycles: 37511533 heartbeat IPC: 4 cumulative IPC: 3.999 (Simulation time: 02 hr 37 min 18 sec)
Heartbeat CPU 3 instructions: 150000004 cycles: 37511607 heartbeat IPC: 4 cumulative IPC: 3.999 (Simulation time: 02 hr 37 min 18 sec)
Heartbeat CPU 5 instructions: 150000009 cycles: 37511617 heartbeat IPC: 4 cumulative IPC: 3.999 (Simulation time: 02 hr 37 min 18 sec)
Heartbeat CPU 6 instructions: 150000003 cycles: 37511821 heartbeat IPC: 4 cumulative IPC: 3.999 (Simulation time: 02 hr 37 min 18 sec)
Heartbeat CPU 7 instructions: 150000003 cycles: 37511954 heartbeat IPC: 4 cumulative IPC: 3.999 (Simulation time: 02 hr 37 min 18 sec)
Heartbeat CPU 2 instructions: 150000006 cycles: 37514465 heartbeat IPC: 4 cumulative IPC: 3.998 (Simulation time: 02 hr 37 min 19 sec)
Heartbeat CPU 4 instructions: 160000006 cycles: 40011533 heartbeat IPC: 4 cumulative IPC: 3.999 (Simulation time: 02 hr 47 min 29 sec)
Heartbeat CPU 3 instructions: 160000004 cycles: 40011607 heartbeat IPC: 4 cumulative IPC: 3.999 (Simulation time: 02 hr 47 min 29 sec)
Heartbeat CPU 5 instructions: 160000009 cycles: 40011617 heartbeat IPC: 4 cumulative IPC: 3.999 (Simulation time: 02 hr 47 min 29 sec)
Heartbeat CPU 6 instructions: 160000003 cycles: 40011821 heartbeat IPC: 4 cumulative IPC: 3.999 (Simulation time: 02 hr 47 min 29 sec)
Heartbeat CPU 7 instructions: 160000003 cycles: 40011954 heartbeat IPC: 4 cumulative IPC: 3.999 (Simulation time: 02 hr 47 min 29 sec)
Heartbeat CPU 2 instructions: 160000006 cycles: 40014465 heartbeat IPC: 4 cumulative IPC: 3.999 (Simulation time: 02 hr 47 min 30 sec)
Heartbeat CPU 1 instructions: 90000012 cycles: 40031672 heartbeat IPC: 2.91 cumulative IPC: 2.248 (Simulation time: 02 hr 47 min 34 sec)
*** Reached end of trace: (1, "traces/ocean_8t/ocean1.champsimtrace")
Heartbeat CPU 0 instructions: 20000001 cycles: 42235272 heartbeat IPC: 0.4687 cumulative IPC: 0.4735 (Simulation time: 02 hr 56 min 30 sec)
Heartbeat CPU 4 instructions: 170000006 cycles: 42511533 heartbeat IPC: 4 cumulative IPC: 3.999 (Simulation time: 02 hr 57 min 40 sec)
Heartbeat CPU 3 instructions: 170000004 cycles: 42511607 heartbeat IPC: 4 cumulative IPC: 3.999 (Simulation time: 02 hr 57 min 40 sec)
Heartbeat CPU 5 instructions: 170000009 cycles: 42511617 heartbeat IPC: 4 cumulative IPC: 3.999 (Simulation time: 02 hr 57 min 40 sec)
Heartbeat CPU 6 instructions: 170000003 cycles: 42511821 heartbeat IPC: 4 cumulative IPC: 3.999 (Simulation time: 02 hr 57 min 40 sec)
Heartbeat CPU 7 instructions: 170000003 cycles: 42511954 heartbeat IPC: 4 cumulative IPC: 3.999 (Simulation time: 02 hr 57 min 40 sec)
Heartbeat CPU 2 instructions: 170000006 cycles: 42514465 heartbeat IPC: 4 cumulative IPC: 3.999 (Simulation time: 02 hr 57 min 41 sec)
Heartbeat CPU 1 instructions: 100000013 cycles: 44123865 heartbeat IPC: 2.444 cumulative IPC: 2.266 (Simulation time: 03 hr 04 min 18 sec)
Heartbeat CPU 4 instructions: 180000006 cycles: 45011533 heartbeat IPC: 4 cumulative IPC: 3.999 (Simulation time: 03 hr 07 min 54 sec)
Heartbeat CPU 3 instructions: 180000004 cycles: 45011607 heartbeat IPC: 4 cumulative IPC: 3.999 (Simulation time: 03 hr 07 min 54 sec)
Heartbeat CPU 5 instructions: 180000009 cycles: 45011617 heartbeat IPC: 4 cumulative IPC: 3.999 (Simulation time: 03 hr 07 min 54 sec)
Heartbeat CPU 6 instructions: 180000003 cycles: 45011821 heartbeat IPC: 4 cumulative IPC: 3.999 (Simulation time: 03 hr 07 min 54 sec)
Heartbeat CPU 7 instructions: 180000003 cycles: 45011954 heartbeat IPC: 4 cumulative IPC: 3.999 (Simulation time: 03 hr 07 min 54 sec)
Heartbeat CPU 2 instructions: 180000006 cycles: 45014465 heartbeat IPC: 4 cumulative IPC: 3.999 (Simulation time: 03 hr 07 min 55 sec)
*** Reached end of trace: (2, "traces/ocean_8t/ocean2.champsimtrace")
*** Reached end of trace: (5, "traces/ocean_8t/ocean5.champsimtrace")
*** Reached end of trace: (4, "traces/ocean_8t/ocean4.champsimtrace")
*** Reached end of trace: (6, "traces/ocean_8t/ocean6.champsimtrace")
*** Reached end of trace: (3, "traces/ocean_8t/ocean3.champsimtrace")
*** Reached end of trace: (7, "traces/ocean_8t/ocean7.champsimtrace")
Heartbeat CPU 4 instructions: 190000006 cycles: 47511533 heartbeat IPC: 4 cumulative IPC: 3.999 (Simulation time: 03 hr 18 min 12 sec)
Heartbeat CPU 3 instructions: 190000004 cycles: 47511607 heartbeat IPC: 4 cumulative IPC: 3.999 (Simulation time: 03 hr 18 min 12 sec)
Heartbeat CPU 5 instructions: 190000009 cycles: 47511617 heartbeat IPC: 4 cumulative IPC: 3.999 (Simulation time: 03 hr 18 min 12 sec)
Heartbeat CPU 6 instructions: 190000003 cycles: 47511821 heartbeat IPC: 4 cumulative IPC: 3.999 (Simulation time: 03 hr 18 min 12 sec)
Heartbeat CPU 7 instructions: 190000003 cycles: 47511954 heartbeat IPC: 4 cumulative IPC: 3.999 (Simulation time: 03 hr 18 min 12 sec)
Heartbeat CPU 2 instructions: 190000006 cycles: 47514465 heartbeat IPC: 4 cumulative IPC: 3.999 (Simulation time: 03 hr 18 min 12 sec)
Heartbeat CPU 1 instructions: 110000014 cycles: 48231521 heartbeat IPC: 2.434 cumulative IPC: 2.281 (Simulation time: 03 hr 21 min 11 sec)
Heartbeat CPU 4 instructions: 200000006 cycles: 50011533 heartbeat IPC: 4 cumulative IPC: 3.999 (Simulation time: 03 hr 28 min 26 sec)
Heartbeat CPU 3 instructions: 200000004 cycles: 50011607 heartbeat IPC: 4 cumulative IPC: 3.999 (Simulation time: 03 hr 28 min 26 sec)
Heartbeat CPU 5 instructions: 200000009 cycles: 50011617 heartbeat IPC: 4 cumulative IPC: 3.999 (Simulation time: 03 hr 28 min 26 sec)
Heartbeat CPU 6 instructions: 200000003 cycles: 50011821 heartbeat IPC: 4 cumulative IPC: 3.999 (Simulation time: 03 hr 28 min 26 sec)
Heartbeat CPU 7 instructions: 200000003 cycles: 50011954 heartbeat IPC: 4 cumulative IPC: 3.999 (Simulation time: 03 hr 28 min 26 sec)
Heartbeat CPU 2 instructions: 200000006 cycles: 50014465 heartbeat IPC: 4 cumulative IPC: 3.999 (Simulation time: 03 hr 28 min 27 sec)
Heartbeat CPU 4 instructions: 210000006 cycles: 52511533 heartbeat IPC: 4 cumulative IPC: 3.999 (Simulation time: 03 hr 38 min 10 sec)
Heartbeat CPU 3 instructions: 210000004 cycles: 52511607 heartbeat IPC: 4 cumulative IPC: 3.999 (Simulation time: 03 hr 38 min 10 sec)
Heartbeat CPU 5 instructions: 210000009 cycles: 52511617 heartbeat IPC: 4 cumulative IPC: 3.999 (Simulation time: 03 hr 38 min 10 sec)
Heartbeat CPU 6 instructions: 210000003 cycles: 52511821 heartbeat IPC: 4 cumulative IPC: 3.999 (Simulation time: 03 hr 38 min 10 sec)
Heartbeat CPU 7 instructions: 210000003 cycles: 52511954 heartbeat IPC: 4 cumulative IPC: 3.999 (Simulation time: 03 hr 38 min 10 sec)
Heartbeat CPU 2 instructions: 210000006 cycles: 52514465 heartbeat IPC: 4 cumulative IPC: 3.999 (Simulation time: 03 hr 38 min 11 sec)
Heartbeat CPU 1 instructions: 120000014 cycles: 53169529 heartbeat IPC: 2.025 cumulative IPC: 2.257 (Simulation time: 03 hr 40 min 43 sec)
Heartbeat CPU 4 instructions: 220000006 cycles: 55011533 heartbeat IPC: 4 cumulative IPC: 3.999 (Simulation time: 03 hr 47 min 52 sec)
Heartbeat CPU 3 instructions: 220000004 cycles: 55011607 heartbeat IPC: 4 cumulative IPC: 3.999 (Simulation time: 03 hr 47 min 52 sec)
Heartbeat CPU 5 instructions: 220000009 cycles: 55011617 heartbeat IPC: 4 cumulative IPC: 3.999 (Simulation time: 03 hr 47 min 52 sec)
Heartbeat CPU 6 instructions: 220000003 cycles: 55011821 heartbeat IPC: 4 cumulative IPC: 3.999 (Simulation time: 03 hr 47 min 52 sec)
Heartbeat CPU 7 instructions: 220000003 cycles: 55011954 heartbeat IPC: 4 cumulative IPC: 3.999 (Simulation time: 03 hr 47 min 52 sec)
Heartbeat CPU 2 instructions: 220000006 cycles: 55014465 heartbeat IPC: 4 cumulative IPC: 3.999 (Simulation time: 03 hr 47 min 53 sec)
*** Reached end of trace: (2, "traces/ocean_8t/ocean2.champsimtrace")
*** Reached end of trace: (5, "traces/ocean_8t/ocean5.champsimtrace")
*** Reached end of trace: (4, "traces/ocean_8t/ocean4.champsimtrace")
*** Reached end of trace: (6, "traces/ocean_8t/ocean6.champsimtrace")
*** Reached end of trace: (3, "traces/ocean_8t/ocean3.champsimtrace")
*** Reached end of trace: (7, "traces/ocean_8t/ocean7.champsimtrace")
Heartbeat CPU 4 instructions: 230000006 cycles: 57511533 heartbeat IPC: 4 cumulative IPC: 3.999 (Simulation time: 03 hr 57 min 39 sec)
Heartbeat CPU 3 instructions: 230000004 cycles: 57511607 heartbeat IPC: 4 cumulative IPC: 3.999 (Simulation time: 03 hr 57 min 39 sec)
Heartbeat CPU 5 instructions: 230000009 cycles: 57511617 heartbeat IPC: 4 cumulative IPC: 3.999 (Simulation time: 03 hr 57 min 39 sec)
Heartbeat CPU 6 instructions: 230000003 cycles: 57511821 heartbeat IPC: 4 cumulative IPC: 3.999 (Simulation time: 03 hr 57 min 39 sec)
Heartbeat CPU 7 instructions: 230000003 cycles: 57511954 heartbeat IPC: 4 cumulative IPC: 3.999 (Simulation time: 03 hr 57 min 39 sec)
Heartbeat CPU 2 instructions: 230000006 cycles: 57514465 heartbeat IPC: 4 cumulative IPC: 3.999 (Simulation time: 03 hr 57 min 40 sec)
Heartbeat CPU 1 instructions: 130000015 cycles: 57662456 heartbeat IPC: 2.226 cumulative IPC: 2.255 (Simulation time: 03 hr 58 min 15 sec)
*** Reached end of trace: (1, "traces/ocean_8t/ocean1.champsimtrace")
Heartbeat CPU 4 instructions: 240000006 cycles: 60011533 heartbeat IPC: 4 cumulative IPC: 3.999 (Simulation time: 04 hr 07 min 19 sec)
Heartbeat CPU 3 instructions: 240000004 cycles: 60011607 heartbeat IPC: 4 cumulative IPC: 3.999 (Simulation time: 04 hr 07 min 19 sec)
Heartbeat CPU 5 instructions: 240000009 cycles: 60011617 heartbeat IPC: 4 cumulative IPC: 3.999 (Simulation time: 04 hr 07 min 19 sec)
Heartbeat CPU 6 instructions: 240000003 cycles: 60011821 heartbeat IPC: 4 cumulative IPC: 3.999 (Simulation time: 04 hr 07 min 19 sec)
Heartbeat CPU 7 instructions: 240000003 cycles: 60011954 heartbeat IPC: 4 cumulative IPC: 3.999 (Simulation time: 04 hr 07 min 19 sec)
Heartbeat CPU 2 instructions: 240000006 cycles: 60014465 heartbeat IPC: 4 cumulative IPC: 3.999 (Simulation time: 04 hr 07 min 19 sec)
Heartbeat CPU 1 instructions: 140000015 cycles: 61398340 heartbeat IPC: 2.677 cumulative IPC: 2.28 (Simulation time: 04 hr 12 min 42 sec)
Heartbeat CPU 0 instructions: 30000005 cycles: 62376722 heartbeat IPC: 0.4965 cumulative IPC: 0.4809 (Simulation time: 04 hr 16 min 29 sec)
Heartbeat CPU 4 instructions: 250000006 cycles: 62511533 heartbeat IPC: 4 cumulative IPC: 3.999 (Simulation time: 04 hr 17 min 00 sec)
Heartbeat CPU 3 instructions: 250000004 cycles: 62511607 heartbeat IPC: 4 cumulative IPC: 3.999 (Simulation time: 04 hr 17 min 00 sec)
Heartbeat CPU 5 instructions: 250000009 cycles: 62511617 heartbeat IPC: 4 cumulative IPC: 3.999 (Simulation time: 04 hr 17 min 00 sec)
Heartbeat CPU 6 instructions: 250000003 cycles: 62511821 heartbeat IPC: 4 cumulative IPC: 3.999 (Simulation time: 04 hr 17 min 00 sec)
Heartbeat CPU 7 instructions: 250000003 cycles: 62511954 heartbeat IPC: 4 cumulative IPC: 3.999 (Simulation time: 04 hr 17 min 00 sec)
Heartbeat CPU 2 instructions: 250000006 cycles: 62514465 heartbeat IPC: 4 cumulative IPC: 3.999 (Simulation time: 04 hr 17 min 00 sec)
Heartbeat CPU 4 instructions: 260000006 cycles: 65011533 heartbeat IPC: 4 cumulative IPC: 3.999 (Simulation time: 04 hr 26 min 33 sec)
Heartbeat CPU 3 instructions: 260000004 cycles: 65011607 heartbeat IPC: 4 cumulative IPC: 3.999 (Simulation time: 04 hr 26 min 33 sec)
Heartbeat CPU 5 instructions: 260000009 cycles: 65011617 heartbeat IPC: 4 cumulative IPC: 3.999 (Simulation time: 04 hr 26 min 33 sec)
Heartbeat CPU 6 instructions: 260000003 cycles: 65011821 heartbeat IPC: 4 cumulative IPC: 3.999 (Simulation time: 04 hr 26 min 33 sec)
Heartbeat CPU 7 instructions: 260000003 cycles: 65011954 heartbeat IPC: 4 cumulative IPC: 3.999 (Simulation time: 04 hr 26 min 33 sec)
Heartbeat CPU 2 instructions: 260000006 cycles: 65014465 heartbeat IPC: 4 cumulative IPC: 3.999 (Simulation time: 04 hr 26 min 34 sec)
Heartbeat CPU 1 instructions: 150000015 cycles: 65602144 heartbeat IPC: 2.379 cumulative IPC: 2.287 (Simulation time: 04 hr 28 min 45 sec)
Heartbeat CPU 4 instructions: 270000006 cycles: 67511533 heartbeat IPC: 4 cumulative IPC: 3.999 (Simulation time: 04 hr 35 min 47 sec)
Heartbeat CPU 3 instructions: 270000004 cycles: 67511607 heartbeat IPC: 4 cumulative IPC: 3.999 (Simulation time: 04 hr 35 min 47 sec)
Heartbeat CPU 5 instructions: 270000009 cycles: 67511617 heartbeat IPC: 4 cumulative IPC: 3.999 (Simulation time: 04 hr 35 min 47 sec)
Heartbeat CPU 6 instructions: 270000003 cycles: 67511821 heartbeat IPC: 4 cumulative IPC: 3.999 (Simulation time: 04 hr 35 min 47 sec)
Heartbeat CPU 7 instructions: 270000003 cycles: 67511954 heartbeat IPC: 4 cumulative IPC: 3.999 (Simulation time: 04 hr 35 min 47 sec)
Heartbeat CPU 2 instructions: 270000006 cycles: 67514465 heartbeat IPC: 4 cumulative IPC: 3.999 (Simulation time: 04 hr 35 min 48 sec)
*** Reached end of trace: (2, "traces/ocean_8t/ocean2.champsimtrace")
*** Reached end of trace: (5, "traces/ocean_8t/ocean5.champsimtrace")
*** Reached end of trace: (4, "traces/ocean_8t/ocean4.champsimtrace")
*** Reached end of trace: (6, "traces/ocean_8t/ocean6.champsimtrace")
*** Reached end of trace: (3, "traces/ocean_8t/ocean3.champsimtrace")
*** Reached end of trace: (7, "traces/ocean_8t/ocean7.champsimtrace")
Heartbeat CPU 1 instructions: 160000018 cycles: 69732881 heartbeat IPC: 2.421 cumulative IPC: 2.294 (Simulation time: 04 hr 44 min 04 sec)
Heartbeat CPU 4 instructions: 280000006 cycles: 70011533 heartbeat IPC: 4 cumulative IPC: 3.999 (Simulation time: 04 hr 45 min 06 sec)
Heartbeat CPU 3 instructions: 280000004 cycles: 70011607 heartbeat IPC: 4 cumulative IPC: 3.999 (Simulation time: 04 hr 45 min 06 sec)
Heartbeat CPU 5 instructions: 280000009 cycles: 70011617 heartbeat IPC: 4 cumulative IPC: 3.999 (Simulation time: 04 hr 45 min 06 sec)
Heartbeat CPU 6 instructions: 280000003 cycles: 70011821 heartbeat IPC: 4 cumulative IPC: 3.999 (Simulation time: 04 hr 45 min 06 sec)
Heartbeat CPU 7 instructions: 280000003 cycles: 70011954 heartbeat IPC: 4 cumulative IPC: 3.999 (Simulation time: 04 hr 45 min 06 sec)
Heartbeat CPU 2 instructions: 280000006 cycles: 70014465 heartbeat IPC: 4 cumulative IPC: 3.999 (Simulation time: 04 hr 45 min 07 sec)
Heartbeat CPU 4 instructions: 290000006 cycles: 72511533 heartbeat IPC: 4 cumulative IPC: 3.999 (Simulation time: 04 hr 54 min 11 sec)
Heartbeat CPU 3 instructions: 290000004 cycles: 72511607 heartbeat IPC: 4 cumulative IPC: 3.999 (Simulation time: 04 hr 54 min 11 sec)
Heartbeat CPU 5 instructions: 290000009 cycles: 72511617 heartbeat IPC: 4 cumulative IPC: 3.999 (Simulation time: 04 hr 54 min 11 sec)
Heartbeat CPU 6 instructions: 290000003 cycles: 72511821 heartbeat IPC: 4 cumulative IPC: 3.999 (Simulation time: 04 hr 54 min 11 sec)
Heartbeat CPU 7 instructions: 290000003 cycles: 72511954 heartbeat IPC: 4 cumulative IPC: 3.999 (Simulation time: 04 hr 54 min 11 sec)
Heartbeat CPU 2 instructions: 290000006 cycles: 72514465 heartbeat IPC: 4 cumulative IPC: 3.999 (Simulation time: 04 hr 54 min 11 sec)
Heartbeat CPU 4 instructions: 300000006 cycles: 75011533 heartbeat IPC: 4 cumulative IPC: 3.999 (Simulation time: 05 hr 02 min 55 sec)
Heartbeat CPU 3 instructions: 300000004 cycles: 75011607 heartbeat IPC: 4 cumulative IPC: 3.999 (Simulation time: 05 hr 02 min 55 sec)
Heartbeat CPU 5 instructions: 300000009 cycles: 75011617 heartbeat IPC: 4 cumulative IPC: 3.999 (Simulation time: 05 hr 02 min 55 sec)
Heartbeat CPU 6 instructions: 300000003 cycles: 75011821 heartbeat IPC: 4 cumulative IPC: 3.999 (Simulation time: 05 hr 02 min 55 sec)
Heartbeat CPU 7 instructions: 300000003 cycles: 75011954 heartbeat IPC: 4 cumulative IPC: 3.999 (Simulation time: 05 hr 02 min 55 sec)
Heartbeat CPU 2 instructions: 300000006 cycles: 75014465 heartbeat IPC: 4 cumulative IPC: 3.999 (Simulation time: 05 hr 02 min 56 sec)
Heartbeat CPU 1 instructions: 170000018 cycles: 75314860 heartbeat IPC: 1.791 cumulative IPC: 2.257 (Simulation time: 05 hr 03 min 59 sec)
Heartbeat CPU 4 instructions: 310000006 cycles: 77511533 heartbeat IPC: 4 cumulative IPC: 3.999 (Simulation time: 05 hr 11 min 46 sec)
Heartbeat CPU 3 instructions: 310000004 cycles: 77511607 heartbeat IPC: 4 cumulative IPC: 3.999 (Simulation time: 05 hr 11 min 46 sec)
Heartbeat CPU 5 instructions: 310000009 cycles: 77511617 heartbeat IPC: 4 cumulative IPC: 3.999 (Simulation time: 05 hr 11 min 46 sec)
Heartbeat CPU 6 instructions: 310000003 cycles: 77511821 heartbeat IPC: 4 cumulative IPC: 3.999 (Simulation time: 05 hr 11 min 46 sec)
Heartbeat CPU 7 instructions: 310000003 cycles: 77511954 heartbeat IPC: 4 cumulative IPC: 3.999 (Simulation time: 05 hr 11 min 46 sec)
Heartbeat CPU 2 instructions: 310000006 cycles: 77514465 heartbeat IPC: 4 cumulative IPC: 3.999 (Simulation time: 05 hr 11 min 47 sec)
Heartbeat CPU 1 instructions: 180000021 cycles: 78869825 heartbeat IPC: 2.813 cumulative IPC: 2.282 (Simulation time: 05 hr 16 min 37 sec)
*** Reached end of trace: (2, "traces/ocean_8t/ocean2.champsimtrace")
*** Reached end of trace: (5, "traces/ocean_8t/ocean5.champsimtrace")
*** Reached end of trace: (4, "traces/ocean_8t/ocean4.champsimtrace")
*** Reached end of trace: (6, "traces/ocean_8t/ocean6.champsimtrace")
*** Reached end of trace: (3, "traces/ocean_8t/ocean3.champsimtrace")
*** Reached end of trace: (1, "traces/ocean_8t/ocean1.champsimtrace")
*** Reached end of trace: (7, "traces/ocean_8t/ocean7.champsimtrace")
Heartbeat CPU 4 instructions: 320000006 cycles: 80011533 heartbeat IPC: 4 cumulative IPC: 3.999 (Simulation time: 05 hr 20 min 41 sec)
Heartbeat CPU 3 instructions: 320000004 cycles: 80011607 heartbeat IPC: 4 cumulative IPC: 3.999 (Simulation time: 05 hr 20 min 41 sec)
Heartbeat CPU 5 instructions: 320000009 cycles: 80011617 heartbeat IPC: 4 cumulative IPC: 3.999 (Simulation time: 05 hr 20 min 41 sec)
Heartbeat CPU 6 instructions: 320000003 cycles: 80011821 heartbeat IPC: 4 cumulative IPC: 3.999 (Simulation time: 05 hr 20 min 41 sec)
Heartbeat CPU 7 instructions: 320000003 cycles: 80011954 heartbeat IPC: 4 cumulative IPC: 3.999 (Simulation time: 05 hr 20 min 41 sec)
Heartbeat CPU 2 instructions: 320000006 cycles: 80014465 heartbeat IPC: 4 cumulative IPC: 3.999 (Simulation time: 05 hr 20 min 41 sec)
Heartbeat CPU 4 instructions: 330000006 cycles: 82511533 heartbeat IPC: 4 cumulative IPC: 3.999 (Simulation time: 05 hr 29 min 35 sec)
Heartbeat CPU 3 instructions: 330000004 cycles: 82511607 heartbeat IPC: 4 cumulative IPC: 3.999 (Simulation time: 05 hr 29 min 35 sec)
Heartbeat CPU 5 instructions: 330000009 cycles: 82511617 heartbeat IPC: 4 cumulative IPC: 3.999 (Simulation time: 05 hr 29 min 35 sec)
Heartbeat CPU 6 instructions: 330000003 cycles: 82511821 heartbeat IPC: 4 cumulative IPC: 3.999 (Simulation time: 05 hr 29 min 35 sec)
Heartbeat CPU 7 instructions: 330000003 cycles: 82511954 heartbeat IPC: 4 cumulative IPC: 3.999 (Simulation time: 05 hr 29 min 35 sec)
Heartbeat CPU 2 instructions: 330000006 cycles: 82514465 heartbeat IPC: 4 cumulative IPC: 3.999 (Simulation time: 05 hr 29 min 36 sec)
Heartbeat CPU 1 instructions: 190000024 cycles: 82876754 heartbeat IPC: 2.496 cumulative IPC: 2.293 (Simulation time: 05 hr 30 min 54 sec)
Heartbeat CPU 0 instructions: 40000005 cycles: 84864502 heartbeat IPC: 0.4447 cumulative IPC: 0.4713 (Simulation time: 05 hr 37 min 59 sec)
Heartbeat CPU 4 instructions: 340000006 cycles: 85011533 heartbeat IPC: 4 cumulative IPC: 3.999 (Simulation time: 05 hr 38 min 32 sec)
Heartbeat CPU 3 instructions: 340000004 cycles: 85011607 heartbeat IPC: 4 cumulative IPC: 3.999 (Simulation time: 05 hr 38 min 32 sec)
Heartbeat CPU 5 instructions: 340000009 cycles: 85011617 heartbeat IPC: 4 cumulative IPC: 3.999 (Simulation time: 05 hr 38 min 32 sec)
Heartbeat CPU 6 instructions: 340000003 cycles: 85011821 heartbeat IPC: 4 cumulative IPC: 3.999 (Simulation time: 05 hr 38 min 32 sec)
Heartbeat CPU 7 instructions: 340000003 cycles: 85011954 heartbeat IPC: 4 cumulative IPC: 3.999 (Simulation time: 05 hr 38 min 32 sec)
Heartbeat CPU 2 instructions: 340000006 cycles: 85014465 heartbeat IPC: 4 cumulative IPC: 3.999 (Simulation time: 05 hr 38 min 33 sec)
Heartbeat CPU 1 instructions: 200000024 cycles: 86972273 heartbeat IPC: 2.442 cumulative IPC: 2.3 (Simulation time: 05 hr 45 min 35 sec)
Heartbeat CPU 4 instructions: 350000006 cycles: 87511533 heartbeat IPC: 4 cumulative IPC: 3.999 (Simulation time: 05 hr 47 min 31 sec)
Heartbeat CPU 3 instructions: 350000004 cycles: 87511607 heartbeat IPC: 4 cumulative IPC: 3.999 (Simulation time: 05 hr 47 min 31 sec)
Heartbeat CPU 5 instructions: 350000009 cycles: 87511617 heartbeat IPC: 4 cumulative IPC: 3.999 (Simulation time: 05 hr 47 min 31 sec)
Heartbeat CPU 6 instructions: 350000003 cycles: 87511821 heartbeat IPC: 4 cumulative IPC: 3.999 (Simulation time: 05 hr 47 min 31 sec)
Heartbeat CPU 7 instructions: 350000003 cycles: 87511954 heartbeat IPC: 4 cumulative IPC: 3.999 (Simulation time: 05 hr 47 min 31 sec)
Heartbeat CPU 2 instructions: 350000006 cycles: 87514465 heartbeat IPC: 4 cumulative IPC: 3.999 (Simulation time: 05 hr 47 min 32 sec)
Heartbeat CPU 4 instructions: 360000006 cycles: 90011533 heartbeat IPC: 4 cumulative IPC: 3.999 (Simulation time: 05 hr 56 min 38 sec)
Heartbeat CPU 3 instructions: 360000004 cycles: 90011607 heartbeat IPC: 4 cumulative IPC: 3.999 (Simulation time: 05 hr 56 min 38 sec)
Heartbeat CPU 5 instructions: 360000009 cycles: 90011617 heartbeat IPC: 4 cumulative IPC: 3.999 (Simulation time: 05 hr 56 min 38 sec)
Heartbeat CPU 6 instructions: 360000003 cycles: 90011821 heartbeat IPC: 4 cumulative IPC: 3.999 (Simulation time: 05 hr 56 min 38 sec)
Heartbeat CPU 7 instructions: 360000003 cycles: 90011954 heartbeat IPC: 4 cumulative IPC: 3.999 (Simulation time: 05 hr 56 min 38 sec)
Heartbeat CPU 2 instructions: 360000006 cycles: 90014465 heartbeat IPC: 4 cumulative IPC: 3.999 (Simulation time: 05 hr 56 min 39 sec)
*** Reached end of trace: (2, "traces/ocean_8t/ocean2.champsimtrace")
*** Reached end of trace: (5, "traces/ocean_8t/ocean5.champsimtrace")
*** Reached end of trace: (4, "traces/ocean_8t/ocean4.champsimtrace")
*** Reached end of trace: (6, "traces/ocean_8t/ocean6.champsimtrace")
*** Reached end of trace: (3, "traces/ocean_8t/ocean3.champsimtrace")
*** Reached end of trace: (7, "traces/ocean_8t/ocean7.champsimtrace")
Heartbeat CPU 1 instructions: 210000025 cycles: 91731032 heartbeat IPC: 2.101 cumulative IPC: 2.289 (Simulation time: 06 hr 02 min 53 sec)
Heartbeat CPU 4 instructions: 370000006 cycles: 92511533 heartbeat IPC: 4 cumulative IPC: 4 (Simulation time: 06 hr 05 min 46 sec)
Heartbeat CPU 3 instructions: 370000004 cycles: 92511607 heartbeat IPC: 4 cumulative IPC: 3.999 (Simulation time: 06 hr 05 min 46 sec)
Heartbeat CPU 5 instructions: 370000009 cycles: 92511617 heartbeat IPC: 4 cumulative IPC: 3.999 (Simulation time: 06 hr 05 min 46 sec)
Heartbeat CPU 6 instructions: 370000003 cycles: 92511821 heartbeat IPC: 4 cumulative IPC: 3.999 (Simulation time: 06 hr 05 min 46 sec)
Heartbeat CPU 7 instructions: 370000003 cycles: 92511954 heartbeat IPC: 4 cumulative IPC: 3.999 (Simulation time: 06 hr 05 min 46 sec)
Heartbeat CPU 2 instructions: 370000006 cycles: 92514465 heartbeat IPC: 4 cumulative IPC: 3.999 (Simulation time: 06 hr 05 min 47 sec)
Heartbeat CPU 4 instructions: 380000006 cycles: 95011533 heartbeat IPC: 4 cumulative IPC: 4 (Simulation time: 06 hr 15 min 07 sec)
Heartbeat CPU 3 instructions: 380000004 cycles: 95011607 heartbeat IPC: 4 cumulative IPC: 4 (Simulation time: 06 hr 15 min 07 sec)
Heartbeat CPU 5 instructions: 380000009 cycles: 95011617 heartbeat IPC: 4 cumulative IPC: 4 (Simulation time: 06 hr 15 min 07 sec)
Heartbeat CPU 6 instructions: 380000003 cycles: 95011821 heartbeat IPC: 4 cumulative IPC: 4 (Simulation time: 06 hr 15 min 07 sec)
Heartbeat CPU 7 instructions: 380000003 cycles: 95011954 heartbeat IPC: 4 cumulative IPC: 3.999 (Simulation time: 06 hr 15 min 08 sec)
Heartbeat CPU 2 instructions: 380000006 cycles: 95014465 heartbeat IPC: 4 cumulative IPC: 3.999 (Simulation time: 06 hr 15 min 08 sec)
Heartbeat CPU 1 instructions: 220000026 cycles: 96454777 heartbeat IPC: 2.117 cumulative IPC: 2.281 (Simulation time: 06 hr 20 min 35 sec)
Heartbeat CPU 4 instructions: 390000006 cycles: 97511533 heartbeat IPC: 4 cumulative IPC: 4 (Simulation time: 06 hr 24 min 37 sec)
Heartbeat CPU 3 instructions: 390000004 cycles: 97511607 heartbeat IPC: 4 cumulative IPC: 4 (Simulation time: 06 hr 24 min 37 sec)
Heartbeat CPU 5 instructions: 390000009 cycles: 97511617 heartbeat IPC: 4 cumulative IPC: 4 (Simulation time: 06 hr 24 min 37 sec)
Heartbeat CPU 6 instructions: 390000003 cycles: 97511821 heartbeat IPC: 4 cumulative IPC: 4 (Simulation time: 06 hr 24 min 37 sec)
Heartbeat CPU 7 instructions: 390000003 cycles: 97511954 heartbeat IPC: 4 cumulative IPC: 4 (Simulation time: 06 hr 24 min 37 sec)
Heartbeat CPU 2 instructions: 390000006 cycles: 97514465 heartbeat IPC: 4 cumulative IPC: 3.999 (Simulation time: 06 hr 24 min 37 sec)
*** Reached end of trace: (0, "traces/ocean_8t/ocean0.champsimtrace")
*** Reached end of trace: (1, "traces/ocean_8t/ocean1.champsimtrace")
Heartbeat CPU 4 instructions: 400000006 cycles: 100011533 heartbeat IPC: 4 cumulative IPC: 4 (Simulation time: 06 hr 34 min 06 sec)
Heartbeat CPU 3 instructions: 400000004 cycles: 100011607 heartbeat IPC: 4 cumulative IPC: 4 (Simulation time: 06 hr 34 min 06 sec)
Heartbeat CPU 5 instructions: 400000009 cycles: 100011617 heartbeat IPC: 4 cumulative IPC: 4 (Simulation time: 06 hr 34 min 06 sec)
Heartbeat CPU 6 instructions: 400000003 cycles: 100011821 heartbeat IPC: 4 cumulative IPC: 4 (Simulation time: 06 hr 34 min 06 sec)
Heartbeat CPU 7 instructions: 400000003 cycles: 100011954 heartbeat IPC: 4 cumulative IPC: 4 (Simulation time: 06 hr 34 min 06 sec)
Heartbeat CPU 2 instructions: 400000006 cycles: 100014465 heartbeat IPC: 4 cumulative IPC: 3.999 (Simulation time: 06 hr 34 min 07 sec)
Heartbeat CPU 1 instructions: 230000028 cycles: 100171940 heartbeat IPC: 2.69 cumulative IPC: 2.296 (Simulation time: 06 hr 34 min 44 sec)
*** Reached end of trace: (2, "traces/ocean_8t/ocean2.champsimtrace")
*** Reached end of trace: (5, "traces/ocean_8t/ocean5.champsimtrace")
*** Reached end of trace: (4, "traces/ocean_8t/ocean4.champsimtrace")
*** Reached end of trace: (6, "traces/ocean_8t/ocean6.champsimtrace")
*** Reached end of trace: (3, "traces/ocean_8t/ocean3.champsimtrace")
*** Reached end of trace: (7, "traces/ocean_8t/ocean7.champsimtrace")
Heartbeat CPU 4 instructions: 410000006 cycles: 102511533 heartbeat IPC: 4 cumulative IPC: 4 (Simulation time: 06 hr 43 min 36 sec)
Heartbeat CPU 3 instructions: 410000004 cycles: 102511607 heartbeat IPC: 4 cumulative IPC: 4 (Simulation time: 06 hr 43 min 36 sec)
Heartbeat CPU 5 instructions: 410000009 cycles: 102511617 heartbeat IPC: 4 cumulative IPC: 4 (Simulation time: 06 hr 43 min 36 sec)
Heartbeat CPU 6 instructions: 410000003 cycles: 102511821 heartbeat IPC: 4 cumulative IPC: 4 (Simulation time: 06 hr 43 min 36 sec)
Heartbeat CPU 7 instructions: 410000003 cycles: 102511954 heartbeat IPC: 4 cumulative IPC: 4 (Simulation time: 06 hr 43 min 36 sec)
Heartbeat CPU 2 instructions: 410000006 cycles: 102514465 heartbeat IPC: 4 cumulative IPC: 3.999 (Simulation time: 06 hr 43 min 37 sec)
Heartbeat CPU 1 instructions: 240000029 cycles: 104347709 heartbeat IPC: 2.395 cumulative IPC: 2.3 (Simulation time: 06 hr 50 min 38 sec)
Heartbeat CPU 4 instructions: 420000006 cycles: 105011533 heartbeat IPC: 4 cumulative IPC: 4 (Simulation time: 06 hr 52 min 26 sec)
Heartbeat CPU 3 instructions: 420000004 cycles: 105011607 heartbeat IPC: 4 cumulative IPC: 4 (Simulation time: 06 hr 52 min 26 sec)
Heartbeat CPU 5 instructions: 420000009 cycles: 105011617 heartbeat IPC: 4 cumulative IPC: 4 (Simulation time: 06 hr 52 min 26 sec)
Heartbeat CPU 6 instructions: 420000003 cycles: 105011821 heartbeat IPC: 4 cumulative IPC: 4 (Simulation time: 06 hr 52 min 26 sec)
Heartbeat CPU 7 instructions: 420000003 cycles: 105011954 heartbeat IPC: 4 cumulative IPC: 4 (Simulation time: 06 hr 52 min 26 sec)
Heartbeat CPU 2 instructions: 420000006 cycles: 105014465 heartbeat IPC: 4 cumulative IPC: 3.999 (Simulation time: 06 hr 52 min 26 sec)
Warmup finished CPU 0 instructions: 50000000 cycles: 106732462 cumulative IPC: 0.4685 (Simulation time: 06 hr 58 min 39 sec)
Warmup complete CPU 7 instructions: 426882035 cycles: 106732462 cumulative IPC: 4 (Simulation time: 06 hr 58 min 39 sec)
Warmup complete CPU 6 instructions: 426882567 cycles: 106732462 cumulative IPC: 4 (Simulation time: 06 hr 58 min 39 sec)
Warmup complete CPU 5 instructions: 426883389 cycles: 106732462 cumulative IPC: 4 (Simulation time: 06 hr 58 min 39 sec)
Warmup complete CPU 4 instructions: 426883722 cycles: 106732462 cumulative IPC: 4 (Simulation time: 06 hr 58 min 39 sec)
Warmup complete CPU 3 instructions: 426883424 cycles: 106732462 cumulative IPC: 4 (Simulation time: 06 hr 58 min 39 sec)
Warmup complete CPU 2 instructions: 426871994 cycles: 106732462 cumulative IPC: 3.999 (Simulation time: 06 hr 58 min 39 sec)
Warmup complete CPU 1 instructions: 245969710 cycles: 106732462 cumulative IPC: 2.305 (Simulation time: 06 hr 58 min 39 sec)
Warmup complete CPU 0 instructions: 50000000 cycles: 106732462 cumulative IPC: 0.4685 (Simulation time: 06 hr 58 min 39 sec)
Heartbeat CPU 0 instructions: 50000008 cycles: 106732509 heartbeat IPC: 0.4573 cumulative IPC: 0.1702 (Simulation time: 06 hr 58 min 39 sec)
Heartbeat CPU 4 instructions: 430000006 cycles: 107511533 heartbeat IPC: 4 cumulative IPC: 4 (Simulation time: 07 hr 01 min 28 sec)
Heartbeat CPU 3 instructions: 430000004 cycles: 107511607 heartbeat IPC: 4 cumulative IPC: 4 (Simulation time: 07 hr 01 min 28 sec)
Heartbeat CPU 5 instructions: 430000009 cycles: 107511617 heartbeat IPC: 4 cumulative IPC: 4 (Simulation time: 07 hr 01 min 28 sec)
Heartbeat CPU 6 instructions: 430000003 cycles: 107511821 heartbeat IPC: 4 cumulative IPC: 4 (Simulation time: 07 hr 01 min 29 sec)
Heartbeat CPU 7 instructions: 430000003 cycles: 107511954 heartbeat IPC: 4 cumulative IPC: 4 (Simulation time: 07 hr 01 min 29 sec)
Heartbeat CPU 2 instructions: 430000006 cycles: 107514465 heartbeat IPC: 4 cumulative IPC: 4 (Simulation time: 07 hr 01 min 29 sec)
Heartbeat CPU 4 instructions: 440000006 cycles: 110011533 heartbeat IPC: 4 cumulative IPC: 4 (Simulation time: 07 hr 10 min 38 sec)
Heartbeat CPU 3 instructions: 440000004 cycles: 110011607 heartbeat IPC: 4 cumulative IPC: 4 (Simulation time: 07 hr 10 min 38 sec)
Heartbeat CPU 5 instructions: 440000009 cycles: 110011617 heartbeat IPC: 4 cumulative IPC: 4 (Simulation time: 07 hr 10 min 38 sec)
Heartbeat CPU 6 instructions: 440000003 cycles: 110011821 heartbeat IPC: 4 cumulative IPC: 4 (Simulation time: 07 hr 10 min 38 sec)
Heartbeat CPU 7 instructions: 440000003 cycles: 110011954 heartbeat IPC: 4 cumulative IPC: 4 (Simulation time: 07 hr 10 min 38 sec)
Heartbeat CPU 2 instructions: 440000006 cycles: 110014465 heartbeat IPC: 4 cumulative IPC: 4 (Simulation time: 07 hr 10 min 38 sec)
Heartbeat CPU 4 instructions: 450000006 cycles: 112511533 heartbeat IPC: 4 cumulative IPC: 4 (Simulation time: 07 hr 20 min 05 sec)
Heartbeat CPU 3 instructions: 450000004 cycles: 112511607 heartbeat IPC: 4 cumulative IPC: 4 (Simulation time: 07 hr 20 min 05 sec)
Heartbeat CPU 5 instructions: 450000009 cycles: 112511617 heartbeat IPC: 4 cumulative IPC: 4 (Simulation time: 07 hr 20 min 05 sec)
Heartbeat CPU 6 instructions: 450000003 cycles: 112511821 heartbeat IPC: 4 cumulative IPC: 4 (Simulation time: 07 hr 20 min 05 sec)
Heartbeat CPU 7 instructions: 450000003 cycles: 112511954 heartbeat IPC: 4 cumulative IPC: 4 (Simulation time: 07 hr 20 min 05 sec)
Heartbeat CPU 2 instructions: 450000006 cycles: 112514465 heartbeat IPC: 4 cumulative IPC: 4 (Simulation time: 07 hr 20 min 06 sec)
*** Reached end of trace: (2, "traces/ocean_8t/ocean2.champsimtrace")
*** Reached end of trace: (5, "traces/ocean_8t/ocean5.champsimtrace")
*** Reached end of trace: (4, "traces/ocean_8t/ocean4.champsimtrace")
*** Reached end of trace: (6, "traces/ocean_8t/ocean6.champsimtrace")
*** Reached end of trace: (3, "traces/ocean_8t/ocean3.champsimtrace")
*** Reached end of trace: (7, "traces/ocean_8t/ocean7.champsimtrace")
Heartbeat CPU 4 instructions: 460000008 cycles: 115011575 heartbeat IPC: 4 cumulative IPC: 4 (Simulation time: 07 hr 29 min 47 sec)
Heartbeat CPU 3 instructions: 460000006 cycles: 115011622 heartbeat IPC: 4 cumulative IPC: 4 (Simulation time: 07 hr 29 min 47 sec)
Heartbeat CPU 5 instructions: 460000009 cycles: 115011641 heartbeat IPC: 4 cumulative IPC: 4 (Simulation time: 07 hr 29 min 47 sec)
Heartbeat CPU 6 instructions: 460000003 cycles: 115011848 heartbeat IPC: 4 cumulative IPC: 4 (Simulation time: 07 hr 29 min 48 sec)
Heartbeat CPU 7 instructions: 460000004 cycles: 115011985 heartbeat IPC: 4 cumulative IPC: 4 (Simulation time: 07 hr 29 min 48 sec)
Heartbeat CPU 2 instructions: 460000007 cycles: 115014508 heartbeat IPC: 4 cumulative IPC: 4 (Simulation time: 07 hr 29 min 48 sec)
Heartbeat CPU 4 instructions: 470000008 cycles: 117511575 heartbeat IPC: 4 cumulative IPC: 4 (Simulation time: 07 hr 39 min 28 sec)
Heartbeat CPU 3 instructions: 470000006 cycles: 117511622 heartbeat IPC: 4 cumulative IPC: 4 (Simulation time: 07 hr 39 min 28 sec)
Heartbeat CPU 5 instructions: 470000009 cycles: 117511641 heartbeat IPC: 4 cumulative IPC: 4 (Simulation time: 07 hr 39 min 28 sec)
Heartbeat CPU 6 instructions: 470000003 cycles: 117511848 heartbeat IPC: 4 cumulative IPC: 4 (Simulation time: 07 hr 39 min 28 sec)
Heartbeat CPU 7 instructions: 470000004 cycles: 117511985 heartbeat IPC: 4 cumulative IPC: 4 (Simulation time: 07 hr 39 min 28 sec)
Heartbeat CPU 2 instructions: 470000007 cycles: 117514508 heartbeat IPC: 4 cumulative IPC: 4 (Simulation time: 07 hr 39 min 29 sec)
Heartbeat CPU 1 instructions: 250000029 cycles: 119318066 heartbeat IPC: 0.668 cumulative IPC: 0.3202 (Simulation time: 07 hr 46 min 14 sec)
Heartbeat CPU 4 instructions: 480000008 cycles: 120011575 heartbeat IPC: 4 cumulative IPC: 4 (Simulation time: 07 hr 48 min 44 sec)
Heartbeat CPU 3 instructions: 480000006 cycles: 120011622 heartbeat IPC: 4 cumulative IPC: 4 (Simulation time: 07 hr 48 min 44 sec)
Heartbeat CPU 5 instructions: 480000009 cycles: 120011641 heartbeat IPC: 4 cumulative IPC: 4 (Simulation time: 07 hr 48 min 44 sec)
Heartbeat CPU 6 instructions: 480000003 cycles: 120011848 heartbeat IPC: 4 cumulative IPC: 4 (Simulation time: 07 hr 48 min 44 sec)
Heartbeat CPU 7 instructions: 480000004 cycles: 120011985 heartbeat IPC: 4 cumulative IPC: 4 (Simulation time: 07 hr 48 min 44 sec)
Heartbeat CPU 2 instructions: 480000007 cycles: 120014508 heartbeat IPC: 4 cumulative IPC: 4 (Simulation time: 07 hr 48 min 45 sec)
Heartbeat CPU 4 instructions: 490000008 cycles: 122511575 heartbeat IPC: 4 cumulative IPC: 4 (Simulation time: 07 hr 57 min 58 sec)
Heartbeat CPU 3 instructions: 490000006 cycles: 122511622 heartbeat IPC: 4 cumulative IPC: 4 (Simulation time: 07 hr 57 min 58 sec)
Heartbeat CPU 5 instructions: 490000009 cycles: 122511641 heartbeat IPC: 4 cumulative IPC: 4 (Simulation time: 07 hr 57 min 58 sec)
Heartbeat CPU 6 instructions: 490000003 cycles: 122511848 heartbeat IPC: 4 cumulative IPC: 4 (Simulation time: 07 hr 57 min 58 sec)
Heartbeat CPU 7 instructions: 490000004 cycles: 122511985 heartbeat IPC: 4 cumulative IPC: 4 (Simulation time: 07 hr 57 min 58 sec)
Heartbeat CPU 2 instructions: 490000007 cycles: 122514508 heartbeat IPC: 4 cumulative IPC: 4 (Simulation time: 07 hr 57 min 59 sec)
*** Reached end of trace: (2, "traces/ocean_8t/ocean2.champsimtrace")
*** Reached end of trace: (5, "traces/ocean_8t/ocean5.champsimtrace")
*** Reached end of trace: (4, "traces/ocean_8t/ocean4.champsimtrace")
*** Reached end of trace: (6, "traces/ocean_8t/ocean6.champsimtrace")
*** Reached end of trace: (3, "traces/ocean_8t/ocean3.champsimtrace")
Heartbeat CPU 4 instructions: 500000009 cycles: 125011608 heartbeat IPC: 4 cumulative IPC: 4 (Simulation time: 08 hr 07 min 07 sec)
Heartbeat CPU 3 instructions: 500000009 cycles: 125011637 heartbeat IPC: 4 cumulative IPC: 4 (Simulation time: 08 hr 07 min 07 sec)
Heartbeat CPU 5 instructions: 500000009 cycles: 125011662 heartbeat IPC: 4 cumulative IPC: 4 (Simulation time: 08 hr 07 min 07 sec)
Heartbeat CPU 6 instructions: 500000004 cycles: 125011881 heartbeat IPC: 4 cumulative IPC: 4 (Simulation time: 08 hr 07 min 07 sec)
Heartbeat CPU 7 instructions: 500000004 cycles: 125011985 heartbeat IPC: 4 cumulative IPC: 4 (Simulation time: 08 hr 07 min 07 sec)
Heartbeat CPU 2 instructions: 500000008 cycles: 125014551 heartbeat IPC: 4 cumulative IPC: 4 (Simulation time: 08 hr 07 min 08 sec)
*** Reached end of trace: (7, "traces/ocean_8t/ocean7.champsimtrace")
Heartbeat CPU 4 instructions: 510000009 cycles: 127511608 heartbeat IPC: 4 cumulative IPC: 4 (Simulation time: 08 hr 16 min 21 sec)
Heartbeat CPU 3 instructions: 510000009 cycles: 127511637 heartbeat IPC: 4 cumulative IPC: 4 (Simulation time: 08 hr 16 min 21 sec)
Heartbeat CPU 5 instructions: 510000009 cycles: 127511662 heartbeat IPC: 4 cumulative IPC: 4 (Simulation time: 08 hr 16 min 21 sec)
Heartbeat CPU 6 instructions: 510000004 cycles: 127511881 heartbeat IPC: 4 cumulative IPC: 4 (Simulation time: 08 hr 16 min 21 sec)
Heartbeat CPU 7 instructions: 510000006 cycles: 127512017 heartbeat IPC: 4 cumulative IPC: 4 (Simulation time: 08 hr 16 min 21 sec)
Heartbeat CPU 2 instructions: 510000008 cycles: 127514551 heartbeat IPC: 4 cumulative IPC: 4 (Simulation time: 08 hr 16 min 21 sec)
Heartbeat CPU 4 instructions: 520000009 cycles: 130011608 heartbeat IPC: 4 cumulative IPC: 4 (Simulation time: 08 hr 25 min 28 sec)
Heartbeat CPU 3 instructions: 520000009 cycles: 130011637 heartbeat IPC: 4 cumulative IPC: 4 (Simulation time: 08 hr 25 min 28 sec)
Heartbeat CPU 5 instructions: 520000009 cycles: 130011662 heartbeat IPC: 4 cumulative IPC: 4 (Simulation time: 08 hr 25 min 28 sec)
Heartbeat CPU 6 instructions: 520000004 cycles: 130011881 heartbeat IPC: 4 cumulative IPC: 4 (Simulation time: 08 hr 25 min 28 sec)
Heartbeat CPU 7 instructions: 520000006 cycles: 130012017 heartbeat IPC: 4 cumulative IPC: 4 (Simulation time: 08 hr 25 min 28 sec)
Heartbeat CPU 2 instructions: 520000008 cycles: 130014551 heartbeat IPC: 4 cumulative IPC: 4 (Simulation time: 08 hr 25 min 29 sec)
Simulation finished CPU 3 instructions: 100000001 cycles: 25000029 cumulative IPC: 4 (Simulation time: 08 hr 31 min 53 sec)
Simulation finished CPU 5 instructions: 100000000 cycles: 25000045 cumulative IPC: 4 (Simulation time: 08 hr 31 min 53 sec)
Simulation finished CPU 6 instructions: 100000001 cycles: 25000060 cumulative IPC: 4 (Simulation time: 08 hr 31 min 53 sec)
Simulation finished CPU 7 instructions: 100000003 cycles: 25000063 cumulative IPC: 4 (Simulation time: 08 hr 31 min 53 sec)
Simulation finished CPU 4 instructions: 100000003 cycles: 25000075 cumulative IPC: 4 (Simulation time: 08 hr 31 min 53 sec)
Simulation finished CPU 2 instructions: 100000002 cycles: 25000086 cumulative IPC: 4 (Simulation time: 08 hr 31 min 53 sec)
Heartbeat CPU 4 instructions: 530000009 cycles: 132511608 heartbeat IPC: 4 cumulative IPC: 4 (Simulation time: 08 hr 34 min 48 sec)
Heartbeat CPU 3 instructions: 530000009 cycles: 132511637 heartbeat IPC: 4 cumulative IPC: 4 (Simulation time: 08 hr 34 min 48 sec)
Heartbeat CPU 5 instructions: 530000009 cycles: 132511662 heartbeat IPC: 4 cumulative IPC: 4 (Simulation time: 08 hr 34 min 48 sec)
Heartbeat CPU 6 instructions: 530000004 cycles: 132511881 heartbeat IPC: 4 cumulative IPC: 4 (Simulation time: 08 hr 34 min 48 sec)
Heartbeat CPU 7 instructions: 530000006 cycles: 132512017 heartbeat IPC: 4 cumulative IPC: 4 (Simulation time: 08 hr 34 min 48 sec)
Heartbeat CPU 2 instructions: 530000008 cycles: 132514551 heartbeat IPC: 4 cumulative IPC: 4 (Simulation time: 08 hr 34 min 48 sec)
Heartbeat CPU 4 instructions: 540000009 cycles: 135011608 heartbeat IPC: 4 cumulative IPC: 4 (Simulation time: 08 hr 43 min 54 sec)
Heartbeat CPU 3 instructions: 540000009 cycles: 135011637 heartbeat IPC: 4 cumulative IPC: 4 (Simulation time: 08 hr 43 min 54 sec)
Heartbeat CPU 5 instructions: 540000009 cycles: 135011662 heartbeat IPC: 4 cumulative IPC: 4 (Simulation time: 08 hr 43 min 54 sec)
Heartbeat CPU 6 instructions: 540000004 cycles: 135011881 heartbeat IPC: 4 cumulative IPC: 4 (Simulation time: 08 hr 43 min 54 sec)
Heartbeat CPU 7 instructions: 540000006 cycles: 135012017 heartbeat IPC: 4 cumulative IPC: 4 (Simulation time: 08 hr 43 min 54 sec)
Heartbeat CPU 2 instructions: 540000008 cycles: 135014551 heartbeat IPC: 4 cumulative IPC: 4 (Simulation time: 08 hr 43 min 55 sec)
*** Reached end of trace: (2, "traces/ocean_8t/ocean2.champsimtrace")
*** Reached end of trace: (5, "traces/ocean_8t/ocean5.champsimtrace")
*** Reached end of trace: (4, "traces/ocean_8t/ocean4.champsimtrace")
*** Reached end of trace: (6, "traces/ocean_8t/ocean6.champsimtrace")
*** Reached end of trace: (3, "traces/ocean_8t/ocean3.champsimtrace")
*** Reached end of trace: (7, "traces/ocean_8t/ocean7.champsimtrace")
Heartbeat CPU 4 instructions: 550000010 cycles: 137511641 heartbeat IPC: 4 cumulative IPC: 4 (Simulation time: 08 hr 52 min 50 sec)
Heartbeat CPU 3 instructions: 550000012 cycles: 137511652 heartbeat IPC: 4 cumulative IPC: 4 (Simulation time: 08 hr 52 min 50 sec)
Heartbeat CPU 5 instructions: 550000009 cycles: 137511683 heartbeat IPC: 4 cumulative IPC: 4 (Simulation time: 08 hr 52 min 50 sec)
Heartbeat CPU 6 instructions: 550000005 cycles: 137511914 heartbeat IPC: 4 cumulative IPC: 4 (Simulation time: 08 hr 52 min 50 sec)
Heartbeat CPU 7 instructions: 550000008 cycles: 137512049 heartbeat IPC: 4 cumulative IPC: 4 (Simulation time: 08 hr 52 min 50 sec)
Heartbeat CPU 2 instructions: 550000009 cycles: 137514594 heartbeat IPC: 4 cumulative IPC: 4 (Simulation time: 08 hr 52 min 51 sec)
Heartbeat CPU 4 instructions: 560000010 cycles: 140011641 heartbeat IPC: 4 cumulative IPC: 4 (Simulation time: 09 hr 01 min 47 sec)
Heartbeat CPU 3 instructions: 560000012 cycles: 140011652 heartbeat IPC: 4 cumulative IPC: 4 (Simulation time: 09 hr 01 min 47 sec)
Heartbeat CPU 5 instructions: 560000009 cycles: 140011683 heartbeat IPC: 4 cumulative IPC: 4 (Simulation time: 09 hr 01 min 47 sec)
Heartbeat CPU 6 instructions: 560000005 cycles: 140011914 heartbeat IPC: 4 cumulative IPC: 4 (Simulation time: 09 hr 01 min 47 sec)
Heartbeat CPU 7 instructions: 560000008 cycles: 140012049 heartbeat IPC: 4 cumulative IPC: 4 (Simulation time: 09 hr 01 min 48 sec)
Heartbeat CPU 2 instructions: 560000009 cycles: 140014594 heartbeat IPC: 4 cumulative IPC: 4 (Simulation time: 09 hr 01 min 48 sec)
Heartbeat CPU 4 instructions: 570000010 cycles: 142511641 heartbeat IPC: 4 cumulative IPC: 4 (Simulation time: 09 hr 10 min 49 sec)
Heartbeat CPU 3 instructions: 570000012 cycles: 142511652 heartbeat IPC: 4 cumulative IPC: 4 (Simulation time: 09 hr 10 min 49 sec)
Heartbeat CPU 5 instructions: 570000009 cycles: 142511683 heartbeat IPC: 4 cumulative IPC: 4 (Simulation time: 09 hr 10 min 49 sec)
Heartbeat CPU 6 instructions: 570000005 cycles: 142511914 heartbeat IPC: 4 cumulative IPC: 4 (Simulation time: 09 hr 10 min 49 sec)
Heartbeat CPU 7 instructions: 570000008 cycles: 142512049 heartbeat IPC: 4 cumulative IPC: 4 (Simulation time: 09 hr 10 min 49 sec)
Heartbeat CPU 2 instructions: 570000009 cycles: 142514594 heartbeat IPC: 4 cumulative IPC: 4 (Simulation time: 09 hr 10 min 50 sec)
Heartbeat CPU 4 instructions: 580000010 cycles: 145011641 heartbeat IPC: 4 cumulative IPC: 4 (Simulation time: 09 hr 20 min 04 sec)
Heartbeat CPU 3 instructions: 580000012 cycles: 145011652 heartbeat IPC: 4 cumulative IPC: 4 (Simulation time: 09 hr 20 min 04 sec)
Heartbeat CPU 5 instructions: 580000009 cycles: 145011683 heartbeat IPC: 4 cumulative IPC: 4 (Simulation time: 09 hr 20 min 04 sec)
Heartbeat CPU 6 instructions: 580000005 cycles: 145011914 heartbeat IPC: 4 cumulative IPC: 4 (Simulation time: 09 hr 20 min 04 sec)
Heartbeat CPU 7 instructions: 580000008 cycles: 145012049 heartbeat IPC: 4 cumulative IPC: 4 (Simulation time: 09 hr 20 min 04 sec)
Heartbeat CPU 2 instructions: 580000009 cycles: 145014594 heartbeat IPC: 4 cumulative IPC: 4 (Simulation time: 09 hr 20 min 05 sec)
*** Reached end of trace: (2, "traces/ocean_8t/ocean2.champsimtrace")
*** Reached end of trace: (5, "traces/ocean_8t/ocean5.champsimtrace")
*** Reached end of trace: (4, "traces/ocean_8t/ocean4.champsimtrace")
*** Reached end of trace: (6, "traces/ocean_8t/ocean6.champsimtrace")
Heartbeat CPU 3 instructions: 590000012 cycles: 147511652 heartbeat IPC: 4 cumulative IPC: 4 (Simulation time: 09 hr 29 min 59 sec)
Heartbeat CPU 4 instructions: 590000011 cycles: 147511674 heartbeat IPC: 4 cumulative IPC: 4 (Simulation time: 09 hr 29 min 59 sec)
Heartbeat CPU 5 instructions: 590000009 cycles: 147511704 heartbeat IPC: 4 cumulative IPC: 4 (Simulation time: 09 hr 29 min 59 sec)
Heartbeat CPU 6 instructions: 590000006 cycles: 147511947 heartbeat IPC: 4 cumulative IPC: 4 (Simulation time: 09 hr 29 min 59 sec)
Heartbeat CPU 7 instructions: 590000008 cycles: 147512049 heartbeat IPC: 4 cumulative IPC: 4 (Simulation time: 09 hr 29 min 59 sec)
Heartbeat CPU 2 instructions: 590000010 cycles: 147514637 heartbeat IPC: 4 cumulative IPC: 4 (Simulation time: 09 hr 29 min 59 sec)
*** Reached end of trace: (3, "traces/ocean_8t/ocean3.champsimtrace")
*** Reached end of trace: (7, "traces/ocean_8t/ocean7.champsimtrace")
Heartbeat CPU 3 instructions: 600000015 cycles: 150011667 heartbeat IPC: 4 cumulative IPC: 4 (Simulation time: 09 hr 39 min 37 sec)
Heartbeat CPU 4 instructions: 600000011 cycles: 150011674 heartbeat IPC: 4 cumulative IPC: 4 (Simulation time: 09 hr 39 min 37 sec)
Heartbeat CPU 5 instructions: 600000009 cycles: 150011704 heartbeat IPC: 4 cumulative IPC: 4 (Simulation time: 09 hr 39 min 37 sec)
Heartbeat CPU 6 instructions: 600000006 cycles: 150011947 heartbeat IPC: 4 cumulative IPC: 4 (Simulation time: 09 hr 39 min 37 sec)
Heartbeat CPU 7 instructions: 600000010 cycles: 150012081 heartbeat IPC: 4 cumulative IPC: 4 (Simulation time: 09 hr 39 min 37 sec)
Heartbeat CPU 2 instructions: 600000010 cycles: 150014637 heartbeat IPC: 4 cumulative IPC: 4 (Simulation time: 09 hr 39 min 38 sec)
Heartbeat CPU 3 instructions: 610000015 cycles: 152511667 heartbeat IPC: 4 cumulative IPC: 4 (Simulation time: 09 hr 48 min 42 sec)
Heartbeat CPU 4 instructions: 610000011 cycles: 152511674 heartbeat IPC: 4 cumulative IPC: 4 (Simulation time: 09 hr 48 min 42 sec)
Heartbeat CPU 5 instructions: 610000009 cycles: 152511704 heartbeat IPC: 4 cumulative IPC: 4 (Simulation time: 09 hr 48 min 42 sec)
Heartbeat CPU 6 instructions: 610000006 cycles: 152511947 heartbeat IPC: 4 cumulative IPC: 4 (Simulation time: 09 hr 48 min 42 sec)
Heartbeat CPU 7 instructions: 610000010 cycles: 152512081 heartbeat IPC: 4 cumulative IPC: 4 (Simulation time: 09 hr 48 min 42 sec)
Heartbeat CPU 2 instructions: 610000010 cycles: 152514637 heartbeat IPC: 4 cumulative IPC: 4 (Simulation time: 09 hr 48 min 43 sec)
Heartbeat CPU 0 instructions: 60000011 cycles: 154504868 heartbeat IPC: 0.2093 cumulative IPC: 0.2093 (Simulation time: 09 hr 56 min 11 sec)
Heartbeat CPU 3 instructions: 620000015 cycles: 155011667 heartbeat IPC: 4 cumulative IPC: 4 (Simulation time: 09 hr 58 min 08 sec)
Heartbeat CPU 4 instructions: 620000011 cycles: 155011674 heartbeat IPC: 4 cumulative IPC: 4 (Simulation time: 09 hr 58 min 08 sec)
Heartbeat CPU 5 instructions: 620000009 cycles: 155011704 heartbeat IPC: 4 cumulative IPC: 4 (Simulation time: 09 hr 58 min 08 sec)
Heartbeat CPU 6 instructions: 620000006 cycles: 155011947 heartbeat IPC: 4 cumulative IPC: 4 (Simulation time: 09 hr 58 min 08 sec)
Heartbeat CPU 7 instructions: 620000010 cycles: 155012081 heartbeat IPC: 4 cumulative IPC: 4 (Simulation time: 09 hr 58 min 08 sec)
Heartbeat CPU 2 instructions: 620000010 cycles: 155014637 heartbeat IPC: 4 cumulative IPC: 4 (Simulation time: 09 hr 58 min 09 sec)
Heartbeat CPU 3 instructions: 630000015 cycles: 157511667 heartbeat IPC: 4 cumulative IPC: 4 (Simulation time: 10 hr 07 min 32 sec)
Heartbeat CPU 4 instructions: 630000011 cycles: 157511674 heartbeat IPC: 4 cumulative IPC: 4 (Simulation time: 10 hr 07 min 32 sec)
Heartbeat CPU 5 instructions: 630000009 cycles: 157511704 heartbeat IPC: 4 cumulative IPC: 4 (Simulation time: 10 hr 07 min 32 sec)
Heartbeat CPU 6 instructions: 630000006 cycles: 157511947 heartbeat IPC: 4 cumulative IPC: 4 (Simulation time: 10 hr 07 min 32 sec)
Heartbeat CPU 7 instructions: 630000010 cycles: 157512081 heartbeat IPC: 4 cumulative IPC: 4 (Simulation time: 10 hr 07 min 32 sec)
Heartbeat CPU 2 instructions: 630000010 cycles: 157514637 heartbeat IPC: 4 cumulative IPC: 4 (Simulation time: 10 hr 07 min 33 sec)
*** Reached end of trace: (2, "traces/ocean_8t/ocean2.champsimtrace")
*** Reached end of trace: (5, "traces/ocean_8t/ocean5.champsimtrace")
*** Reached end of trace: (4, "traces/ocean_8t/ocean4.champsimtrace")
*** Reached end of trace: (6, "traces/ocean_8t/ocean6.champsimtrace")
*** Reached end of trace: (3, "traces/ocean_8t/ocean3.champsimtrace")
*** Reached end of trace: (7, "traces/ocean_8t/ocean7.champsimtrace")
Heartbeat CPU 3 instructions: 640000018 cycles: 160011682 heartbeat IPC: 4 cumulative IPC: 4 (Simulation time: 10 hr 16 min 53 sec)
Heartbeat CPU 4 instructions: 640000012 cycles: 160011707 heartbeat IPC: 4 cumulative IPC: 4 (Simulation time: 10 hr 16 min 53 sec)
Heartbeat CPU 5 instructions: 640000009 cycles: 160011725 heartbeat IPC: 4 cumulative IPC: 4 (Simulation time: 10 hr 16 min 53 sec)
Heartbeat CPU 6 instructions: 640000007 cycles: 160011980 heartbeat IPC: 4 cumulative IPC: 4 (Simulation time: 10 hr 16 min 53 sec)
Heartbeat CPU 7 instructions: 640000012 cycles: 160012113 heartbeat IPC: 4 cumulative IPC: 4 (Simulation time: 10 hr 16 min 53 sec)
Heartbeat CPU 2 instructions: 640000011 cycles: 160014680 heartbeat IPC: 4 cumulative IPC: 4 (Simulation time: 10 hr 16 min 54 sec)
Heartbeat CPU 1 instructions: 260000032 cycles: 161370673 heartbeat IPC: 0.2378 cumulative IPC: 0.2568 (Simulation time: 10 hr 21 min 56 sec)
Heartbeat CPU 3 instructions: 650000018 cycles: 162511682 heartbeat IPC: 4 cumulative IPC: 4 (Simulation time: 10 hr 26 min 04 sec)
Heartbeat CPU 4 instructions: 650000012 cycles: 162511707 heartbeat IPC: 4 cumulative IPC: 4 (Simulation time: 10 hr 26 min 04 sec)
Heartbeat CPU 5 instructions: 650000009 cycles: 162511725 heartbeat IPC: 4 cumulative IPC: 4 (Simulation time: 10 hr 26 min 04 sec)
Heartbeat CPU 6 instructions: 650000007 cycles: 162511980 heartbeat IPC: 4 cumulative IPC: 4 (Simulation time: 10 hr 26 min 05 sec)
Heartbeat CPU 7 instructions: 650000012 cycles: 162512113 heartbeat IPC: 4 cumulative IPC: 4 (Simulation time: 10 hr 26 min 05 sec)
Heartbeat CPU 2 instructions: 650000011 cycles: 162514680 heartbeat IPC: 4 cumulative IPC: 4 (Simulation time: 10 hr 26 min 05 sec)
Heartbeat CPU 3 instructions: 660000018 cycles: 165011682 heartbeat IPC: 4 cumulative IPC: 4 (Simulation time: 10 hr 35 min 02 sec)
Heartbeat CPU 4 instructions: 660000012 cycles: 165011707 heartbeat IPC: 4 cumulative IPC: 4 (Simulation time: 10 hr 35 min 02 sec)
Heartbeat CPU 5 instructions: 660000009 cycles: 165011725 heartbeat IPC: 4 cumulative IPC: 4 (Simulation time: 10 hr 35 min 02 sec)
Heartbeat CPU 6 instructions: 660000007 cycles: 165011980 heartbeat IPC: 4 cumulative IPC: 4 (Simulation time: 10 hr 35 min 02 sec)
Heartbeat CPU 7 instructions: 660000012 cycles: 165012113 heartbeat IPC: 4 cumulative IPC: 4 (Simulation time: 10 hr 35 min 02 sec)
Heartbeat CPU 2 instructions: 660000011 cycles: 165014680 heartbeat IPC: 4 cumulative IPC: 4 (Simulation time: 10 hr 35 min 02 sec)
Heartbeat CPU 3 instructions: 670000018 cycles: 167511682 heartbeat IPC: 4 cumulative IPC: 4 (Simulation time: 10 hr 43 min 54 sec)
Heartbeat CPU 4 instructions: 670000012 cycles: 167511707 heartbeat IPC: 4 cumulative IPC: 4 (Simulation time: 10 hr 43 min 54 sec)
Heartbeat CPU 5 instructions: 670000009 cycles: 167511725 heartbeat IPC: 4 cumulative IPC: 4 (Simulation time: 10 hr 43 min 54 sec)
Heartbeat CPU 6 instructions: 670000007 cycles: 167511980 heartbeat IPC: 4 cumulative IPC: 4 (Simulation time: 10 hr 43 min 54 sec)
Heartbeat CPU 7 instructions: 670000012 cycles: 167512113 heartbeat IPC: 4 cumulative IPC: 4 (Simulation time: 10 hr 43 min 54 sec)
Heartbeat CPU 2 instructions: 670000011 cycles: 167514680 heartbeat IPC: 4 cumulative IPC: 4 (Simulation time: 10 hr 43 min 54 sec)
*** Reached end of trace: (2, "traces/ocean_8t/ocean2.champsimtrace")
*** Reached end of trace: (5, "traces/ocean_8t/ocean5.champsimtrace")
*** Reached end of trace: (4, "traces/ocean_8t/ocean4.champsimtrace")
*** Reached end of trace: (6, "traces/ocean_8t/ocean6.champsimtrace")
Heartbeat CPU 3 instructions: 680000018 cycles: 170011682 heartbeat IPC: 4 cumulative IPC: 4 (Simulation time: 10 hr 52 min 31 sec)
Heartbeat CPU 4 instructions: 680000013 cycles: 170011740 heartbeat IPC: 4 cumulative IPC: 4 (Simulation time: 10 hr 52 min 31 sec)
Heartbeat CPU 5 instructions: 680000009 cycles: 170011746 heartbeat IPC: 4 cumulative IPC: 4 (Simulation time: 10 hr 52 min 31 sec)
Heartbeat CPU 6 instructions: 680000008 cycles: 170012013 heartbeat IPC: 4 cumulative IPC: 4 (Simulation time: 10 hr 52 min 31 sec)
Heartbeat CPU 7 instructions: 680000012 cycles: 170012113 heartbeat IPC: 4 cumulative IPC: 4 (Simulation time: 10 hr 52 min 31 sec)
Heartbeat CPU 2 instructions: 680000012 cycles: 170014723 heartbeat IPC: 4 cumulative IPC: 4 (Simulation time: 10 hr 52 min 31 sec)
*** Reached end of trace: (3, "traces/ocean_8t/ocean3.champsimtrace")
*** Reached end of trace: (7, "traces/ocean_8t/ocean7.champsimtrace")
Heartbeat CPU 3 instructions: 690000021 cycles: 172511697 heartbeat IPC: 4 cumulative IPC: 4 (Simulation time: 11 hr 01 min 26 sec)
Heartbeat CPU 4 instructions: 690000013 cycles: 172511740 heartbeat IPC: 4 cumulative IPC: 4 (Simulation time: 11 hr 01 min 26 sec)
Heartbeat CPU 5 instructions: 690000009 cycles: 172511746 heartbeat IPC: 4 cumulative IPC: 4 (Simulation time: 11 hr 01 min 26 sec)
Heartbeat CPU 6 instructions: 690000008 cycles: 172512013 heartbeat IPC: 4 cumulative IPC: 4 (Simulation time: 11 hr 01 min 26 sec)
Heartbeat CPU 7 instructions: 690000014 cycles: 172512145 heartbeat IPC: 4 cumulative IPC: 4 (Simulation time: 11 hr 01 min 26 sec)
Heartbeat CPU 2 instructions: 690000012 cycles: 172514723 heartbeat IPC: 4 cumulative IPC: 4 (Simulation time: 11 hr 01 min 27 sec)
Heartbeat CPU 3 instructions: 700000021 cycles: 175011697 heartbeat IPC: 4 cumulative IPC: 4 (Simulation time: 11 hr 10 min 14 sec)
Heartbeat CPU 4 instructions: 700000013 cycles: 175011740 heartbeat IPC: 4 cumulative IPC: 4 (Simulation time: 11 hr 10 min 14 sec)
Heartbeat CPU 5 instructions: 700000009 cycles: 175011746 heartbeat IPC: 4 cumulative IPC: 4 (Simulation time: 11 hr 10 min 14 sec)
Heartbeat CPU 6 instructions: 700000008 cycles: 175012013 heartbeat IPC: 4 cumulative IPC: 4 (Simulation time: 11 hr 10 min 14 sec)
Heartbeat CPU 7 instructions: 700000014 cycles: 175012145 heartbeat IPC: 4 cumulative IPC: 4 (Simulation time: 11 hr 10 min 14 sec)
Heartbeat CPU 2 instructions: 700000012 cycles: 175014723 heartbeat IPC: 4 cumulative IPC: 4 (Simulation time: 11 hr 10 min 14 sec)
Heartbeat CPU 3 instructions: 710000021 cycles: 177511697 heartbeat IPC: 4 cumulative IPC: 4 (Simulation time: 11 hr 19 min 01 sec)
Heartbeat CPU 4 instructions: 710000013 cycles: 177511740 heartbeat IPC: 4 cumulative IPC: 4 (Simulation time: 11 hr 19 min 01 sec)
Heartbeat CPU 5 instructions: 710000009 cycles: 177511746 heartbeat IPC: 4 cumulative IPC: 4 (Simulation time: 11 hr 19 min 01 sec)
Heartbeat CPU 6 instructions: 710000008 cycles: 177512013 heartbeat IPC: 4 cumulative IPC: 4 (Simulation time: 11 hr 19 min 01 sec)
Heartbeat CPU 7 instructions: 710000014 cycles: 177512145 heartbeat IPC: 4 cumulative IPC: 4 (Simulation time: 11 hr 19 min 01 sec)
Heartbeat CPU 2 instructions: 710000012 cycles: 177514723 heartbeat IPC: 4 cumulative IPC: 4 (Simulation time: 11 hr 19 min 01 sec)
Heartbeat CPU 3 instructions: 720000021 cycles: 180011697 heartbeat IPC: 4 cumulative IPC: 4 (Simulation time: 11 hr 27 min 57 sec)
Heartbeat CPU 4 instructions: 720000013 cycles: 180011740 heartbeat IPC: 4 cumulative IPC: 4 (Simulation time: 11 hr 27 min 57 sec)
Heartbeat CPU 5 instructions: 720000009 cycles: 180011746 heartbeat IPC: 4 cumulative IPC: 4 (Simulation time: 11 hr 27 min 57 sec)
Heartbeat CPU 6 instructions: 720000008 cycles: 180012013 heartbeat IPC: 4 cumulative IPC: 4 (Simulation time: 11 hr 27 min 57 sec)
Heartbeat CPU 7 instructions: 720000014 cycles: 180012145 heartbeat IPC: 4 cumulative IPC: 4 (Simulation time: 11 hr 27 min 57 sec)
Heartbeat CPU 2 instructions: 720000012 cycles: 180014723 heartbeat IPC: 4 cumulative IPC: 4 (Simulation time: 11 hr 27 min 58 sec)
*** Reached end of trace: (2, "traces/ocean_8t/ocean2.champsimtrace")
*** Reached end of trace: (5, "traces/ocean_8t/ocean5.champsimtrace")
*** Reached end of trace: (4, "traces/ocean_8t/ocean4.champsimtrace")
*** Reached end of trace: (6, "traces/ocean_8t/ocean6.champsimtrace")
*** Reached end of trace: (3, "traces/ocean_8t/ocean3.champsimtrace")
*** Reached end of trace: (7, "traces/ocean_8t/ocean7.champsimtrace")
Heartbeat CPU 3 instructions: 730000024 cycles: 182511712 heartbeat IPC: 4 cumulative IPC: 4 (Simulation time: 11 hr 36 min 57 sec)
Heartbeat CPU 5 instructions: 730000009 cycles: 182511767 heartbeat IPC: 4 cumulative IPC: 4 (Simulation time: 11 hr 36 min 57 sec)
Heartbeat CPU 4 instructions: 730000014 cycles: 182511773 heartbeat IPC: 4 cumulative IPC: 4 (Simulation time: 11 hr 36 min 57 sec)
Heartbeat CPU 6 instructions: 730000009 cycles: 182512046 heartbeat IPC: 4 cumulative IPC: 4 (Simulation time: 11 hr 36 min 57 sec)
Heartbeat CPU 7 instructions: 730000016 cycles: 182512177 heartbeat IPC: 4 cumulative IPC: 4 (Simulation time: 11 hr 36 min 57 sec)
Heartbeat CPU 2 instructions: 730000013 cycles: 182514766 heartbeat IPC: 4 cumulative IPC: 4 (Simulation time: 11 hr 36 min 57 sec)
Heartbeat CPU 3 instructions: 740000024 cycles: 185011712 heartbeat IPC: 4 cumulative IPC: 4 (Simulation time: 11 hr 46 min 09 sec)
Heartbeat CPU 5 instructions: 740000009 cycles: 185011767 heartbeat IPC: 4 cumulative IPC: 4 (Simulation time: 11 hr 46 min 09 sec)
Heartbeat CPU 4 instructions: 740000014 cycles: 185011773 heartbeat IPC: 4 cumulative IPC: 4 (Simulation time: 11 hr 46 min 09 sec)
Heartbeat CPU 6 instructions: 740000009 cycles: 185012046 heartbeat IPC: 4 cumulative IPC: 4 (Simulation time: 11 hr 46 min 09 sec)
Heartbeat CPU 7 instructions: 740000016 cycles: 185012177 heartbeat IPC: 4 cumulative IPC: 4 (Simulation time: 11 hr 46 min 09 sec)
Heartbeat CPU 2 instructions: 740000013 cycles: 185014766 heartbeat IPC: 4 cumulative IPC: 4 (Simulation time: 11 hr 46 min 10 sec)
Heartbeat CPU 3 instructions: 750000024 cycles: 187511712 heartbeat IPC: 4 cumulative IPC: 4 (Simulation time: 11 hr 55 min 09 sec)
Heartbeat CPU 5 instructions: 750000009 cycles: 187511767 heartbeat IPC: 4 cumulative IPC: 4 (Simulation time: 11 hr 55 min 09 sec)
Heartbeat CPU 4 instructions: 750000014 cycles: 187511773 heartbeat IPC: 4 cumulative IPC: 4 (Simulation time: 11 hr 55 min 09 sec)
Heartbeat CPU 6 instructions: 750000009 cycles: 187512046 heartbeat IPC: 4 cumulative IPC: 4 (Simulation time: 11 hr 55 min 09 sec)
Heartbeat CPU 7 instructions: 750000016 cycles: 187512177 heartbeat IPC: 4 cumulative IPC: 4 (Simulation time: 11 hr 55 min 09 sec)
Heartbeat CPU 2 instructions: 750000013 cycles: 187514766 heartbeat IPC: 4 cumulative IPC: 4 (Simulation time: 11 hr 55 min 10 sec)
Heartbeat CPU 3 instructions: 760000024 cycles: 190011712 heartbeat IPC: 4 cumulative IPC: 4 (Simulation time: 12 hr 04 min 11 sec)
Heartbeat CPU 5 instructions: 760000009 cycles: 190011767 heartbeat IPC: 4 cumulative IPC: 4 (Simulation time: 12 hr 04 min 11 sec)
Heartbeat CPU 4 instructions: 760000014 cycles: 190011773 heartbeat IPC: 4 cumulative IPC: 4 (Simulation time: 12 hr 04 min 11 sec)
Heartbeat CPU 6 instructions: 760000009 cycles: 190012046 heartbeat IPC: 4 cumulative IPC: 4 (Simulation time: 12 hr 04 min 11 sec)
Heartbeat CPU 7 instructions: 760000016 cycles: 190012177 heartbeat IPC: 4 cumulative IPC: 4 (Simulation time: 12 hr 04 min 11 sec)
Heartbeat CPU 2 instructions: 760000013 cycles: 190014766 heartbeat IPC: 4 cumulative IPC: 4 (Simulation time: 12 hr 04 min 12 sec)
*** Reached end of trace: (2, "traces/ocean_8t/ocean2.champsimtrace")
*** Reached end of trace: (5, "traces/ocean_8t/ocean5.champsimtrace")
*** Reached end of trace: (4, "traces/ocean_8t/ocean4.champsimtrace")
*** Reached end of trace: (6, "traces/ocean_8t/ocean6.champsimtrace")
Heartbeat CPU 3 instructions: 770000024 cycles: 192511712 heartbeat IPC: 4 cumulative IPC: 4 (Simulation time: 12 hr 13 min 24 sec)
Heartbeat CPU 5 instructions: 770000009 cycles: 192511788 heartbeat IPC: 4 cumulative IPC: 4 (Simulation time: 12 hr 13 min 24 sec)
Heartbeat CPU 4 instructions: 770000015 cycles: 192511806 heartbeat IPC: 4 cumulative IPC: 4 (Simulation time: 12 hr 13 min 24 sec)
Heartbeat CPU 6 instructions: 770000010 cycles: 192512079 heartbeat IPC: 4 cumulative IPC: 4 (Simulation time: 12 hr 13 min 24 sec)
Heartbeat CPU 7 instructions: 770000016 cycles: 192512177 heartbeat IPC: 4 cumulative IPC: 4 (Simulation time: 12 hr 13 min 24 sec)
Heartbeat CPU 2 instructions: 770000014 cycles: 192514809 heartbeat IPC: 4 cumulative IPC: 4 (Simulation time: 12 hr 13 min 24 sec)
*** Reached end of trace: (3, "traces/ocean_8t/ocean3.champsimtrace")
*** Reached end of trace: (7, "traces/ocean_8t/ocean7.champsimtrace")
Heartbeat CPU 3 instructions: 780000027 cycles: 195011727 heartbeat IPC: 4 cumulative IPC: 4 (Simulation time: 12 hr 22 min 42 sec)
Heartbeat CPU 5 instructions: 780000009 cycles: 195011788 heartbeat IPC: 4 cumulative IPC: 4 (Simulation time: 12 hr 22 min 42 sec)
Heartbeat CPU 4 instructions: 780000015 cycles: 195011806 heartbeat IPC: 4 cumulative IPC: 4 (Simulation time: 12 hr 22 min 42 sec)
Heartbeat CPU 6 instructions: 780000010 cycles: 195012079 heartbeat IPC: 4 cumulative IPC: 4 (Simulation time: 12 hr 22 min 42 sec)
Heartbeat CPU 7 instructions: 780000018 cycles: 195012209 heartbeat IPC: 4 cumulative IPC: 4 (Simulation time: 12 hr 22 min 42 sec)
Heartbeat CPU 2 instructions: 780000014 cycles: 195014809 heartbeat IPC: 4 cumulative IPC: 4 (Simulation time: 12 hr 22 min 42 sec)
Heartbeat CPU 3 instructions: 790000027 cycles: 197511727 heartbeat IPC: 4 cumulative IPC: 4 (Simulation time: 12 hr 32 min 02 sec)
Heartbeat CPU 5 instructions: 790000009 cycles: 197511788 heartbeat IPC: 4 cumulative IPC: 4 (Simulation time: 12 hr 32 min 02 sec)
Heartbeat CPU 4 instructions: 790000015 cycles: 197511806 heartbeat IPC: 4 cumulative IPC: 4 (Simulation time: 12 hr 32 min 02 sec)
Heartbeat CPU 6 instructions: 790000010 cycles: 197512079 heartbeat IPC: 4 cumulative IPC: 4 (Simulation time: 12 hr 32 min 02 sec)
Heartbeat CPU 7 instructions: 790000018 cycles: 197512209 heartbeat IPC: 4 cumulative IPC: 4 (Simulation time: 12 hr 32 min 02 sec)
Heartbeat CPU 2 instructions: 790000014 cycles: 197514809 heartbeat IPC: 4 cumulative IPC: 4 (Simulation time: 12 hr 32 min 03 sec)
Heartbeat CPU 3 instructions: 800000027 cycles: 200011727 heartbeat IPC: 4 cumulative IPC: 4 (Simulation time: 12 hr 41 min 30 sec)
Heartbeat CPU 5 instructions: 800000009 cycles: 200011788 heartbeat IPC: 4 cumulative IPC: 4 (Simulation time: 12 hr 41 min 30 sec)
Heartbeat CPU 4 instructions: 800000015 cycles: 200011806 heartbeat IPC: 4 cumulative IPC: 4 (Simulation time: 12 hr 41 min 30 sec)
Heartbeat CPU 6 instructions: 800000010 cycles: 200012079 heartbeat IPC: 4 cumulative IPC: 4 (Simulation time: 12 hr 41 min 30 sec)
Heartbeat CPU 7 instructions: 800000018 cycles: 200012209 heartbeat IPC: 4 cumulative IPC: 4 (Simulation time: 12 hr 41 min 30 sec)
Heartbeat CPU 2 instructions: 800000014 cycles: 200014809 heartbeat IPC: 4 cumulative IPC: 4 (Simulation time: 12 hr 41 min 30 sec)
Heartbeat CPU 1 instructions: 270000035 cycles: 200241909 heartbeat IPC: 0.2573 cumulative IPC: 0.257 (Simulation time: 12 hr 42 min 21 sec)
Heartbeat CPU 3 instructions: 810000027 cycles: 202511727 heartbeat IPC: 4 cumulative IPC: 4 (Simulation time: 12 hr 50 min 56 sec)
Heartbeat CPU 5 instructions: 810000009 cycles: 202511788 heartbeat IPC: 4 cumulative IPC: 4 (Simulation time: 12 hr 50 min 56 sec)
Heartbeat CPU 4 instructions: 810000015 cycles: 202511806 heartbeat IPC: 4 cumulative IPC: 4 (Simulation time: 12 hr 50 min 56 sec)
Heartbeat CPU 6 instructions: 810000010 cycles: 202512079 heartbeat IPC: 4 cumulative IPC: 4 (Simulation time: 12 hr 50 min 57 sec)
Heartbeat CPU 7 instructions: 810000018 cycles: 202512209 heartbeat IPC: 4 cumulative IPC: 4 (Simulation time: 12 hr 50 min 57 sec)
Heartbeat CPU 2 instructions: 810000014 cycles: 202514809 heartbeat IPC: 4 cumulative IPC: 4 (Simulation time: 12 hr 50 min 57 sec)
[...]
cpu4->cpu4_ITLB RFO          ACCESS:          0 HIT:          0 MISS:          0 MSHR_MERGE:          0
cpu4->cpu4_ITLB PREFETCH     ACCESS:          0 HIT:          0 MISS:          0 MSHR_MERGE:          0
cpu4->cpu4_ITLB WRITE        ACCESS:          0 HIT:          0 MISS:          0 MSHR_MERGE:          0
cpu4->cpu4_ITLB TRANSLATION  ACCESS:          0 HIT:          0 MISS:          0 MSHR_MERGE:          0
cpu4->cpu4_ITLB PREFETCH REQUESTED:          0 ISSUED:          0 USEFUL:          0 USELESS:          0
cpu4->cpu4_ITLB AVERAGE MISS LATENCY: 3.86 cycles
cpu4_ITLB COHERENCE INVALIDATIONS:          0
cpu4_ITLB COHERENCE WRITE-HIT OTHER-SHARER EVENTS:          0
cpu4_DTLB COHERENCE INVALIDATIONS:          0
cpu4_DTLB COHERENCE WRITE-HIT OTHER-SHARER EVENTS:          0
cpu3->cpu3_STLB TOTAL        ACCESS:        832 HIT:        832 MISS:          0 MSHR_MERGE:          0
cpu3->cpu3_STLB LOAD         ACCESS:        832 HIT:        832 MISS:          0 MSHR_MERGE:          0
cpu3->cpu3_STLB RFO          ACCESS:          0 HIT:          0 MISS:          0 MSHR_MERGE:          0
cpu3->cpu3_STLB PREFETCH     ACCESS:          0 HIT:          0 MISS:          0 MSHR_MERGE:          0
cpu3->cpu3_STLB WRITE        ACCESS:          0 HIT:          0 MISS:          0 MSHR_MERGE:          0
cpu3->cpu3_STLB TRANSLATION  ACCESS:          0 HIT:          0 MISS:          0 MSHR_MERGE:          0
cpu3->cpu3_STLB PREFETCH REQUESTED:          0 ISSUED:          0 USEFUL:          0 USELESS:          0
cpu3->cpu3_STLB AVERAGE MISS LATENCY: - cycles
cpu3_STLB COHERENCE INVALIDATIONS:          0
cpu3_STLB COHERENCE WRITE-HIT OTHER-SHARER EVENTS:          0
cpu3->cpu3_L2C TOTAL        ACCESS:      81332 HIT:      81332 MISS:          0 MSHR_MERGE:          0
cpu3->cpu3_L2C LOAD         ACCESS:      81332 HIT:      81332 MISS:          0 MSHR_MERGE:          0
cpu3->cpu3_L2C RFO          ACCESS:          0 HIT:          0 MISS:          0 MSHR_MERGE:          0
cpu3->cpu3_L2C PREFETCH     ACCESS:          0 HIT:          0 MISS:          0 MSHR_MERGE:          0
cpu3->cpu3_L2C WRITE        ACCESS:          0 HIT:          0 MISS:          0 MSHR_MERGE:          0
cpu3->cpu3_L2C TRANSLATION  ACCESS:          0 HIT:          0 MISS:          0 MSHR_MERGE:          0
cpu3->cpu3_L2C PREFETCH REQUESTED:          0 ISSUED:          0 USEFUL:          0 USELESS:          0
cpu3->cpu3_L2C AVERAGE MISS LATENCY: - cycles
cpu3_L2C COHERENCE INVALIDATIONS:          0
cpu3_L2C COHERENCE WRITE-HIT OTHER-SHARER EVENTS:          0
cpu3->cpu3_L1I TOTAL        ACCESS:  370787892 HIT:  370665935 MISS:     121957 MSHR_MERGE:      40625
cpu3->cpu3_L1I LOAD         ACCESS:  370787892 HIT:  370665935 MISS:     121957 MSHR_MERGE:      40625
cpu3->cpu3_L1I RFO          ACCESS:          0 HIT:          0 MISS:          0 MSHR_MERGE:          0
cpu3->cpu3_L1I PREFETCH     ACCESS:          0 HIT:          0 MISS:          0 MSHR_MERGE:          0
cpu3->cpu3_L1I WRITE        ACCESS:          0 HIT:          0 MISS:          0 MSHR_MERGE:          0
cpu3->cpu3_L1I TRANSLATION  ACCESS:          0 HIT:          0 MISS:          0 MSHR_MERGE:          0
cpu3->cpu3_L1I PREFETCH REQUESTED:          0 ISSUED:          0 USEFUL:          0 USELESS:          0
cpu3->cpu3_L1I AVERAGE MISS LATENCY: 7 cycles
cpu3_L1I COHERENCE INVALIDATIONS:          0
cpu3_L1I COHERENCE WRITE-HIT OTHER-SHARER EVENTS:          0
cpu3_L1D COHERENCE INVALIDATIONS:          0
cpu3_L1D COHERENCE WRITE-HIT OTHER-SHARER EVENTS:          0
cpu3->cpu3_ITLB TOTAL        ACCESS:  293617213 HIT:  293615653 MISS:       1560 MSHR_MERGE:        728
cpu3->cpu3_ITLB LOAD         ACCESS:  293617213 HIT:  293615653 MISS:       1560 MSHR_MERGE:        728
cpu3->cpu3_ITLB RFO          ACCESS:          0 HIT:          0 MISS:          0 MSHR_MERGE:          0
cpu3->cpu3_ITLB PREFETCH     ACCESS:          0 HIT:          0 MISS:          0 MSHR_MERGE:          0
cpu3->cpu3_ITLB WRITE        ACCESS:          0 HIT:          0 MISS:          0 MSHR_MERGE:          0
cpu3->cpu3_ITLB TRANSLATION  ACCESS:          0 HIT:          0 MISS:          0 MSHR_MERGE:          0
cpu3->cpu3_ITLB PREFETCH REQUESTED:          0 ISSUED:          0 USEFUL:          0 USELESS:          0
cpu3->cpu3_ITLB AVERAGE MISS LATENCY: 4 cycles
cpu3_ITLB COHERENCE INVALIDATIONS:          0
cpu3_ITLB COHERENCE WRITE-HIT OTHER-SHARER EVENTS:          0
cpu3_DTLB COHERENCE INVALIDATIONS:          0
cpu3_DTLB COHERENCE WRITE-HIT OTHER-SHARER EVENTS:          0
cpu2->cpu2_STLB TOTAL        ACCESS:        832 HIT:        832 MISS:          0 MSHR_MERGE:          0
cpu2->cpu2_STLB LOAD         ACCESS:        832 HIT:        832 MISS:          0 MSHR_MERGE:          0
cpu2->cpu2_STLB RFO          ACCESS:          0 HIT:          0 MISS:          0 MSHR_MERGE:          0
cpu2->cpu2_STLB PREFETCH     ACCESS:          0 HIT:          0 MISS:          0 MSHR_MERGE:          0
cpu2->cpu2_STLB WRITE        ACCESS:          0 HIT:          0 MISS:          0 MSHR_MERGE:          0
cpu2->cpu2_STLB TRANSLATION  ACCESS:          0 HIT:          0 MISS:          0 MSHR_MERGE:          0
cpu2->cpu2_STLB PREFETCH REQUESTED:          0 ISSUED:          0 USEFUL:          0 USELESS:          0
cpu2->cpu2_STLB AVERAGE MISS LATENCY: - cycles
cpu2_STLB COHERENCE INVALIDATIONS:          0
cpu2_STLB COHERENCE WRITE-HIT OTHER-SHARER EVENTS:          0
cpu2->cpu2_L2C TOTAL        ACCESS:      86588 HIT:      86588 MISS:          0 MSHR_MERGE:          0
cpu2->cpu2_L2C LOAD         ACCESS:      86588 HIT:      86588 MISS:          0 MSHR_MERGE:          0
cpu2->cpu2_L2C RFO          ACCESS:          0 HIT:          0 MISS:          0 MSHR_MERGE:          0
cpu2->cpu2_L2C PREFETCH     ACCESS:          0 HIT:          0 MISS:          0 MSHR_MERGE:          0
cpu2->cpu2_L2C WRITE        ACCESS:          0 HIT:          0 MISS:          0 MSHR_MERGE:          0
cpu2->cpu2_L2C TRANSLATION  ACCESS:          0 HIT:          0 MISS:          0 MSHR_MERGE:          0
cpu2->cpu2_L2C PREFETCH REQUESTED:          0 ISSUED:          0 USEFUL:          0 USELESS:          0
cpu2->cpu2_L2C AVERAGE MISS LATENCY: - cycles
cpu2_L2C COHERENCE INVALIDATIONS:          0
cpu2_L2C COHERENCE WRITE-HIT OTHER-SHARER EVENTS:          0
cpu2->cpu2_L1I TOTAL        ACCESS:  338723541 HIT:  338599158 MISS:     124383 MSHR_MERGE:      37795
cpu2->cpu2_L1I LOAD         ACCESS:  338723541 HIT:  338599158 MISS:     124383 MSHR_MERGE:      37795
cpu2->cpu2_L1I RFO          ACCESS:          0 HIT:          0 MISS:          0 MSHR_MERGE:          0
cpu2->cpu2_L1I PREFETCH     ACCESS:          0 HIT:          0 MISS:          0 MSHR_MERGE:          0
cpu2->cpu2_L1I WRITE        ACCESS:          0 HIT:          0 MISS:          0 MSHR_MERGE:          0
cpu2->cpu2_L1I TRANSLATION  ACCESS:          0 HIT:          0 MISS:          0 MSHR_MERGE:          0
cpu2->cpu2_L1I PREFETCH REQUESTED:          0 ISSUED:          0 USEFUL:          0 USELESS:          0
cpu2->cpu2_L1I AVERAGE MISS LATENCY: 7 cycles
cpu2_L1I COHERENCE INVALIDATIONS:          0
cpu2_L1I COHERENCE WRITE-HIT OTHER-SHARER EVENTS:          0
cpu2_L1D COHERENCE INVALIDATIONS:          0
cpu2_L1D COHERENCE WRITE-HIT OTHER-SHARER EVENTS:          0
cpu2->cpu2_ITLB TOTAL        ACCESS:  272435125 HIT:  272433721 MISS:       1404 MSHR_MERGE:        572
cpu2->cpu2_ITLB LOAD         ACCESS:  272435125 HIT:  272433721 MISS:       1404 MSHR_MERGE:        572
cpu2->cpu2_ITLB RFO          ACCESS:          0 HIT:          0 MISS:          0 MSHR_MERGE:          0
cpu2->cpu2_ITLB PREFETCH     ACCESS:          0 HIT:          0 MISS:          0 MSHR_MERGE:          0
cpu2->cpu2_ITLB WRITE        ACCESS:          0 HIT:          0 MISS:          0 MSHR_MERGE:          0
cpu2->cpu2_ITLB TRANSLATION  ACCESS:          0 HIT:          0 MISS:          0 MSHR_MERGE:          0
cpu2->cpu2_ITLB PREFETCH REQUESTED:          0 ISSUED:          0 USEFUL:          0 USELESS:          0
cpu2->cpu2_ITLB AVERAGE MISS LATENCY: 4 cycles
cpu2_ITLB COHERENCE INVALIDATIONS:          0
cpu2_ITLB COHERENCE WRITE-HIT OTHER-SHARER EVENTS:          0
cpu2_DTLB COHERENCE INVALIDATIONS:          0
cpu2_DTLB COHERENCE WRITE-HIT OTHER-SHARER EVENTS:          0
cpu1->cpu1_STLB TOTAL        ACCESS:     935198 HIT:     903855 MISS:      31343 MSHR_MERGE:          0
cpu1->cpu1_STLB LOAD         ACCESS:     935198 HIT:     903855 MISS:      31343 MSHR_MERGE:          0
cpu1->cpu1_STLB RFO          ACCESS:          0 HIT:          0 MISS:          0 MSHR_MERGE:          0
cpu1->cpu1_STLB PREFETCH     ACCESS:          0 HIT:          0 MISS:          0 MSHR_MERGE:          0
cpu1->cpu1_STLB WRITE        ACCESS:          0 HIT:          0 MISS:          0 MSHR_MERGE:          0
cpu1->cpu1_STLB TRANSLATION  ACCESS:          0 HIT:          0 MISS:          0 MSHR_MERGE:          0
cpu1->cpu1_STLB PREFETCH REQUESTED:          0 ISSUED:          0 USEFUL:          0 USELESS:          0
cpu1->cpu1_STLB AVERAGE MISS LATENCY: 495.8 cycles
cpu1_STLB COHERENCE INVALIDATIONS:          0
cpu1_STLB COHERENCE WRITE-HIT OTHER-SHARER EVENTS:          0
cpu1->cpu1_L2C TOTAL        ACCESS:   13270346 HIT:    5419682 MISS:    7850664 MSHR_MERGE:          0
cpu1->cpu1_L2C LOAD         ACCESS:   13221696 HIT:    5419682 MISS:    7802014 MSHR_MERGE:          0
cpu1->cpu1_L2C RFO          ACCESS:          0 HIT:          0 MISS:          0 MSHR_MERGE:          0
cpu1->cpu1_L2C PREFETCH     ACCESS:          0 HIT:          0 MISS:          0 MSHR_MERGE:          0
cpu1->cpu1_L2C WRITE        ACCESS:          0 HIT:          0 MISS:          0 MSHR_MERGE:          0
cpu1->cpu1_L2C TRANSLATION  ACCESS:      48650 HIT:          0 MISS:      48650 MSHR_MERGE:          0
cpu1->cpu1_L2C PREFETCH REQUESTED:          0 ISSUED:          0 USEFUL:          0 USELESS:          0
cpu1->cpu1_L2C AVERAGE MISS LATENCY: 208.7 cycles
cpu1_L2C COHERENCE INVALIDATIONS:          0
cpu1_L2C COHERENCE WRITE-HIT OTHER-SHARER EVENTS:          0
cpu1->cpu1_L1I TOTAL        ACCESS:   48840194 HIT:   33838268 MISS:   15001926 MSHR_MERGE:    1780230
cpu1->cpu1_L1I LOAD         ACCESS:   48840194 HIT:   33838268 MISS:   15001926 MSHR_MERGE:    1780230
cpu1->cpu1_L1I RFO          ACCESS:          0 HIT:          0 MISS:          0 MSHR_MERGE:          0
cpu1->cpu1_L1I PREFETCH     ACCESS:          0 HIT:          0 MISS:          0 MSHR_MERGE:          0
cpu1->cpu1_L1I WRITE        ACCESS:          0 HIT:          0 MISS:          0 MSHR_MERGE:          0
cpu1->cpu1_L1I TRANSLATION  ACCESS:          0 HIT:          0 MISS:          0 MSHR_MERGE:          0
cpu1->cpu1_L1I PREFETCH REQUESTED:          0 ISSUED:          0 USEFUL:          0 USELESS:          0
cpu1->cpu1_L1I AVERAGE MISS LATENCY: 130.4 cycles
cpu1_L1I COHERENCE INVALIDATIONS:          0
cpu1_L1I COHERENCE WRITE-HIT OTHER-SHARER EVENTS:          0
cpu1->cpu1_L1D TOTAL        ACCESS:      62698 HIT:      14048 MISS:      48650 MSHR_MERGE:          0
cpu1->cpu1_L1D LOAD         ACCESS:          0 HIT:          0 MISS:          0 MSHR_MERGE:          0
cpu1->cpu1_L1D RFO          ACCESS:          0 HIT:          0 MISS:          0 MSHR_MERGE:          0
cpu1->cpu1_L1D PREFETCH     ACCESS:          0 HIT:          0 MISS:          0 MSHR_MERGE:          0
cpu1->cpu1_L1D WRITE        ACCESS:          0 HIT:          0 MISS:          0 MSHR_MERGE:          0
cpu1->cpu1_L1D TRANSLATION  ACCESS:      62698 HIT:      14048 MISS:      48650 MSHR_MERGE:          0
cpu1->cpu1_L1D PREFETCH REQUESTED:          0 ISSUED:          0 USEFUL:          0 USELESS:          0
cpu1->cpu1_L1D AVERAGE MISS LATENCY: 312 cycles
cpu1_L1D COHERENCE INVALIDATIONS:          0
cpu1_L1D COHERENCE WRITE-HIT OTHER-SHARER EVENTS:          0
cpu1->cpu1_ITLB TOTAL        ACCESS:   47990647 HIT:   47015282 MISS:     975365 MSHR_MERGE:      40167
cpu1->cpu1_ITLB LOAD         ACCESS:   47990647 HIT:   47015282 MISS:     975365 MSHR_MERGE:      40167
cpu1->cpu1_ITLB RFO          ACCESS:          0 HIT:          0 MISS:          0 MSHR_MERGE:          0
cpu1->cpu1_ITLB PREFETCH     ACCESS:          0 HIT:          0 MISS:          0 MSHR_MERGE:          0
cpu1->cpu1_ITLB WRITE        ACCESS:          0 HIT:          0 MISS:          0 MSHR_MERGE:          0
cpu1->cpu1_ITLB TRANSLATION  ACCESS:          0 HIT:          0 MISS:          0 MSHR_MERGE:          0
cpu1->cpu1_ITLB PREFETCH REQUESTED:          0 ISSUED:          0 USEFUL:          0 USELESS:          0
cpu1->cpu1_ITLB AVERAGE MISS LATENCY: 20.65 cycles
cpu1_ITLB COHERENCE INVALIDATIONS:          0
cpu1_ITLB COHERENCE WRITE-HIT OTHER-SHARER EVENTS:          0
cpu1_DTLB COHERENCE INVALIDATIONS:          0
cpu1_DTLB COHERENCE WRITE-HIT OTHER-SHARER EVENTS:          0
cpu0->cpu0_STLB TOTAL        ACCESS:    4691387 HIT:    4543844 MISS:     147543 MSHR_MERGE:          0
cpu0->cpu0_STLB LOAD         ACCESS:    4691387 HIT:    4543844 MISS:     147543 MSHR_MERGE:          0
cpu0->cpu0_STLB RFO          ACCESS:          0 HIT:          0 MISS:          0 MSHR_MERGE:          0
cpu0->cpu0_STLB PREFETCH     ACCESS:          0 HIT:          0 MISS:          0 MSHR_MERGE:          0
cpu0->cpu0_STLB WRITE        ACCESS:          0 HIT:          0 MISS:          0 MSHR_MERGE:          0
cpu0->cpu0_STLB TRANSLATION  ACCESS:          0 HIT:          0 MISS:          0 MSHR_MERGE:          0
cpu0->cpu0_STLB PREFETCH REQUESTED:          0 ISSUED:          0 USEFUL:          0 USELESS:          0
cpu0->cpu0_STLB AVERAGE MISS LATENCY: 619 cycles
cpu0_STLB COHERENCE INVALIDATIONS:          0
cpu0_STLB COHERENCE WRITE-HIT OTHER-SHARER EVENTS:          0
cpu0->cpu0_L2C TOTAL        ACCESS:   32533206 HIT:   14781274 MISS:   17751932 MSHR_MERGE:          0
cpu0->cpu0_L2C LOAD         ACCESS:   21239225 HIT:    6671615 MISS:   14567610 MSHR_MERGE:          0
cpu0->cpu0_L2C RFO          ACCESS:    3443699 HIT:     492767 MISS:    2950932 MSHR_MERGE:          0
cpu0->cpu0_L2C PREFETCH     ACCESS:          0 HIT:          0 MISS:          0 MSHR_MERGE:          0
cpu0->cpu0_L2C WRITE        ACCESS:    7578157 HIT:    7577312 MISS:        845 MSHR_MERGE:          0
cpu0->cpu0_L2C TRANSLATION  ACCESS:     272125 HIT:      39580 MISS:     232545 MSHR_MERGE:          0
cpu0->cpu0_L2C PREFETCH REQUESTED:          0 ISSUED:          0 USEFUL:          0 USELESS:          0
cpu0->cpu0_L2C AVERAGE MISS LATENCY: 189.4 cycles
cpu0_L2C COHERENCE INVALIDATIONS:          0
cpu0_L2C COHERENCE WRITE-HIT OTHER-SHARER EVENTS:          0
cpu0->cpu0_L1I TOTAL        ACCESS:   31179089 HIT:   31166950 MISS:      12139 MSHR_MERGE:       5912
cpu0->cpu0_L1I LOAD         ACCESS:   31179089 HIT:   31166950 MISS:      12139 MSHR_MERGE:       5912
cpu0->cpu0_L1I RFO          ACCESS:          0 HIT:          0 MISS:          0 MSHR_MERGE:          0
cpu0->cpu0_L1I PREFETCH     ACCESS:          0 HIT:          0 MISS:          0 MSHR_MERGE:          0
cpu0->cpu0_L1I WRITE        ACCESS:          0 HIT:          0 MISS:          0 MSHR_MERGE:          0
cpu0->cpu0_L1I TRANSLATION  ACCESS:          0 HIT:          0 MISS:          0 MSHR_MERGE:          0
cpu0->cpu0_L1I PREFETCH REQUESTED:          0 ISSUED:          0 USEFUL:          0 USELESS:          0
cpu0->cpu0_L1I AVERAGE MISS LATENCY: 268.5 cycles
cpu0_L1I COHERENCE INVALIDATIONS:          0
cpu0_L1I COHERENCE WRITE-HIT OTHER-SHARER EVENTS:          0
cpu0->cpu0_L1D TOTAL        ACCESS:  103638904 HIT:   75023763 MISS:   28615141 MSHR_MERGE:    3664697
cpu0->cpu0_L1D LOAD         ACCESS:   44982008 HIT:   22755211 MISS:   22226797 MSHR_MERGE:     993500
cpu0->cpu0_L1D RFO          ACCESS:          0 HIT:          0 MISS:          0 MSHR_MERGE:          0
cpu0->cpu0_L1D PREFETCH     ACCESS:          0 HIT:          0 MISS:          0 MSHR_MERGE:          0
cpu0->cpu0_L1D WRITE        ACCESS:   58356653 HIT:   52246188 MISS:    6110465 MSHR_MERGE:    2665443
cpu0->cpu0_L1D TRANSLATION  ACCESS:     300243 HIT:      22364 MISS:     277879 MSHR_MERGE:       5754
cpu0->cpu0_L1D PREFETCH REQUESTED:          0 ISSUED:          0 USEFUL:          0 USELESS:          0
cpu0->cpu0_L1D AVERAGE MISS LATENCY: 142.4 cycles
cpu0_L1D COHERENCE INVALIDATIONS:          0
cpu0_L1D COHERENCE WRITE-HIT OTHER-SHARER EVENTS:          0
cpu0->cpu0_ITLB TOTAL        ACCESS:   29991531 HIT:   29990470 MISS:       1061 MSHR_MERGE:        712
cpu0->cpu0_ITLB LOAD         ACCESS:   29991531 HIT:   29990470 MISS:       1061 MSHR_MERGE:        712
cpu0->cpu0_ITLB RFO          ACCESS:          0 HIT:          0 MISS:          0 MSHR_MERGE:          0
cpu0->cpu0_ITLB PREFETCH     ACCESS:          0 HIT:          0 MISS:          0 MSHR_MERGE:          0
cpu0->cpu0_ITLB WRITE        ACCESS:          0 HIT:          0 MISS:          0 MSHR_MERGE:          0
cpu0->cpu0_ITLB TRANSLATION  ACCESS:          0 HIT:          0 MISS:          0 MSHR_MERGE:          0
cpu0->cpu0_ITLB PREFETCH REQUESTED:          0 ISSUED:          0 USEFUL:          0 USELESS:          0
cpu0->cpu0_ITLB AVERAGE MISS LATENCY: 474 cycles
cpu0_ITLB COHERENCE INVALIDATIONS:          0
cpu0_ITLB COHERENCE WRITE-HIT OTHER-SHARER EVENTS:          0
cpu0->cpu0_DTLB TOTAL        ACCESS:  100036719 HIT:   95142146 MISS:    4894573 MSHR_MERGE:     203535
cpu0->cpu0_DTLB LOAD         ACCESS:  100036719 HIT:   95142146 MISS:    4894573 MSHR_MERGE:     203535
cpu0->cpu0_DTLB RFO          ACCESS:          0 HIT:          0 MISS:          0 MSHR_MERGE:          0
cpu0->cpu0_DTLB PREFETCH     ACCESS:          0 HIT:          0 MISS:          0 MSHR_MERGE:          0
cpu0->cpu0_DTLB WRITE        ACCESS:          0 HIT:          0 MISS:          0 MSHR_MERGE:          0
cpu0->cpu0_DTLB TRANSLATION  ACCESS:          0 HIT:          0 MISS:          0 MSHR_MERGE:          0
cpu0->cpu0_DTLB PREFETCH REQUESTED:          0 ISSUED:          0 USEFUL:          0 USELESS:          0
cpu0->cpu0_DTLB AVERAGE MISS LATENCY: 23.47 cycles
cpu0_DTLB COHERENCE INVALIDATIONS:          0
cpu0_DTLB COHERENCE WRITE-HIT OTHER-SHARER EVENTS:          0
cpu0->LLC TOTAL        ACCESS:   24201698 HIT:   10295333 MISS:   13906365 MSHR_MERGE:        179
cpu0->LLC LOAD         ACCESS:   14567597 HIT:    6623251 MISS:    7944346 MSHR_MERGE:        158
cpu0->LLC RFO          ACCESS:    2950931 HIT:     717526 MISS:    2233405 MSHR_MERGE:         21
cpu0->LLC PREFETCH     ACCESS:          0 HIT:          0 MISS:          0 MSHR_MERGE:          0
cpu0->LLC WRITE        ACCESS:    6450625 HIT:    2950378 MISS:    3500247 MSHR_MERGE:          0
cpu0->LLC TRANSLATION  ACCESS:     232545 HIT:       4178 MISS:     228367 MSHR_MERGE:          0
cpu0->LLC PREFETCH REQUESTED:          0 ISSUED:          0 USEFUL:          0 USELESS:          0
cpu0->LLC AVERAGE MISS LATENCY: 333.1 cycles
cpu1->LLC TOTAL        ACCESS:    7850664 HIT:    2734072 MISS:    5116592 MSHR_MERGE:        149
cpu1->LLC LOAD         ACCESS:    7802014 HIT:    2733803 MISS:    5068211 MSHR_MERGE:        149
cpu1->LLC RFO          ACCESS:          0 HIT:          0 MISS:          0 MSHR_MERGE:          0
cpu1->LLC PREFETCH     ACCESS:          0 HIT:          0 MISS:          0 MSHR_MERGE:          0
cpu1->LLC WRITE        ACCESS:          0 HIT:          0 MISS:          0 MSHR_MERGE:          0
cpu1->LLC TRANSLATION  ACCESS:      48650 HIT:        269 MISS:      48381 MSHR_MERGE:          0
cpu1->LLC PREFETCH REQUESTED:          0 ISSUED:          0 USEFUL:          0 USELESS:          0
cpu1->LLC AVERAGE MISS LATENCY: 905.3 cycles
LLC COHERENCE INVALIDATIONS:     786218
LLC COHERENCE WRITE-HIT OTHER-SHARER EVENTS:     786218

DRAM Statistics

Channel 0 RQ ROW_BUFFER_HIT:     302762
  ROW_BUFFER_MISS:   15174214
  AVG DBUS CONGESTED CYCLE: 6.405
Channel 0 WQ ROW_BUFFER_HIT:     348559
  ROW_BUFFER_MISS:    3327545
  FULL:          0
Channel 0 REFRESHES ISSUED:      49251

VMEM ALIASED FILLS (cross-CPU shared-page hits): 91185
