[VMEM] WARNING: physical memory size is smaller than virtual memory size.

*** ChampSim Multicore Out-of-Order Simulator ***
Warmup Instructions: 50000000
Simulation Instructions: 100000000
Number of CPUs: 8
Page size: 4096

Off-chip DRAM Size: 16 GiB Channels: 1 Width: 64-bit Data Rate: 3205 MT/s
Heartbeat CPU 4 instructions: 10000001 cycles: 2509177 heartbeat IPC: 3.985 cumulative IPC: 3.985 (Simulation time: 00 hr 10 min 51 sec)
Heartbeat CPU 5 instructions: 10000003 cycles: 2509276 heartbeat IPC: 3.985 cumulative IPC: 3.985 (Simulation time: 00 hr 10 min 51 sec)
Heartbeat CPU 3 instructions: 10000003 cycles: 2509384 heartbeat IPC: 3.985 cumulative IPC: 3.985 (Simulation time: 00 hr 10 min 51 sec)
Heartbeat CPU 6 instructions: 10000000 cycles: 2509599 heartbeat IPC: 3.985 cumulative IPC: 3.985 (Simulation time: 00 hr 10 min 51 sec)
Heartbeat CPU 7 instructions: 10000002 cycles: 2509727 heartbeat IPC: 3.984 cumulative IPC: 3.984 (Simulation time: 00 hr 10 min 51 sec)
Heartbeat CPU 2 instructions: 10000001 cycles: 2510814 heartbeat IPC: 3.983 cumulative IPC: 3.983 (Simulation time: 00 hr 10 min 51 sec)
Heartbeat CPU 1 instructions: 10000001 cycles: 4684670 heartbeat IPC: 2.135 cumulative IPC: 2.135 (Simulation time: 00 hr 19 min 53 sec)
Heartbeat CPU 4 instructions: 20000004 cycles: 5009522 heartbeat IPC: 3.999 cumulative IPC: 3.992 (Simulation time: 00 hr 21 min 17 sec)
Heartbeat CPU 3 instructions: 20000006 cycles: 5009600 heartbeat IPC: 4 cumulative IPC: 3.992 (Simulation time: 00 hr 21 min 17 sec)
Heartbeat CPU 5 instructions: 20000006 cycles: 5009614 heartbeat IPC: 3.999 cumulative IPC: 3.992 (Simulation time: 00 hr 21 min 17 sec)
Heartbeat CPU 6 instructions: 20000001 cycles: 5009817 heartbeat IPC: 4 cumulative IPC: 3.992 (Simulation time: 00 hr 21 min 17 sec)
Heartbeat CPU 7 instructions: 20000004 cycles: 5009947 heartbeat IPC: 4 cumulative IPC: 3.992 (Simulation time: 00 hr 21 min 17 sec)
Heartbeat CPU 2 instructions: 20000003 cycles: 5011656 heartbeat IPC: 3.999 cumulative IPC: 3.991 (Simulation time: 00 hr 21 min 17 sec)
Heartbeat CPU 4 instructions: 30000004 cycles: 7509522 heartbeat IPC: 4 cumulative IPC: 3.995 (Simulation time: 00 hr 32 min 04 sec)
Heartbeat CPU 3 instructions: 30000006 cycles: 7509600 heartbeat IPC: 4 cumulative IPC: 3.995 (Simulation time: 00 hr 32 min 04 sec)
Heartbeat CPU 5 instructions: 30000006 cycles: 7509614 heartbeat IPC: 4 cumulative IPC: 3.995 (Simulation time: 00 hr 32 min 04 sec)
Heartbeat CPU 6 instructions: 30000001 cycles: 7509817 heartbeat IPC: 4 cumulative IPC: 3.995 (Simulation time: 00 hr 32 min 04 sec)
Heartbeat CPU 7 instructions: 30000004 cycles: 7509947 heartbeat IPC: 4 cumulative IPC: 3.995 (Simulation time: 00 hr 32 min 05 sec)
Heartbeat CPU 2 instructions: 30000003 cycles: 7511656 heartbeat IPC: 4 cumulative IPC: 3.994 (Simulation time: 00 hr 32 min 05 sec)
Heartbeat CPU 1 instructions: 20000001 cycles: 9253460 heartbeat IPC: 2.189 cumulative IPC: 2.161 (Simulation time: 00 hr 39 min 18 sec)
Heartbeat CPU 4 instructions: 40000004 cycles: 10009522 heartbeat IPC: 4 cumulative IPC: 3.996 (Simulation time: 00 hr 42 min 38 sec)
Heartbeat CPU 3 instructions: 40000006 cycles: 10009600 heartbeat IPC: 4 cumulative IPC: 3.996 (Simulation time: 00 hr 42 min 38 sec)
Heartbeat CPU 5 instructions: 40000006 cycles: 10009614 heartbeat IPC: 4 cumulative IPC: 3.996 (Simulation time: 00 hr 42 min 38 sec)
Heartbeat CPU 6 instructions: 40000001 cycles: 10009817 heartbeat IPC: 4 cumulative IPC: 3.996 (Simulation time: 00 hr 42 min 38 sec)
Heartbeat CPU 7 instructions: 40000004 cycles: 10009947 heartbeat IPC: 4 cumulative IPC: 3.996 (Simulation time: 00 hr 42 min 38 sec)
Heartbeat CPU 2 instructions: 40000003 cycles: 10011656 heartbeat IPC: 4 cumulative IPC: 3.995 (Simulation time: 00 hr 42 min 38 sec)
*** Reached end of trace: (2, "traces/ocean_8t/ocean2.champsimtrace")
*** Reached end of trace: (5, "traces/ocean_8t/ocean5.champsimtrace")
*** Reached end of trace: (4, "traces/ocean_8t/ocean4.champsimtrace")
*** Reached end of trace: (6, "traces/ocean_8t/ocean6.champsimtrace")
*** Reached end of trace: (3, "traces/ocean_8t/ocean3.champsimtrace")
*** Reached end of trace: (7, "traces/ocean_8t/ocean7.champsimtrace")
Warmup finished CPU 4 instructions: 50000002 cycles: 12511532 cumulative IPC: 3.996 (Simulation time: 00 hr 53 min 27 sec)
Heartbeat CPU 4 instructions: 50000006 cycles: 12511533 heartbeat IPC: 3.997 cumulative IPC: 3.996 (Simulation time: 00 hr 53 min 27 sec)
Warmup finished CPU 3 instructions: 50000000 cycles: 12511601 cumulative IPC: 3.996 (Simulation time: 00 hr 53 min 27 sec)
Heartbeat CPU 3 instructions: 50000008 cycles: 12511603 heartbeat IPC: 3.997 cumulative IPC: 3.996 (Simulation time: 00 hr 53 min 27 sec)
Warmup finished CPU 5 instructions: 50000001 cycles: 12511615 cumulative IPC: 3.996 (Simulation time: 00 hr 53 min 27 sec)
Heartbeat CPU 5 instructions: 50000009 cycles: 12511617 heartbeat IPC: 3.997 cumulative IPC: 3.996 (Simulation time: 00 hr 53 min 27 sec)
Heartbeat CPU 6 instructions: 50000003 cycles: 12511821 heartbeat IPC: 3.997 cumulative IPC: 3.996 (Simulation time: 00 hr 53 min 27 sec)
Warmup finished CPU 6 instructions: 50000003 cycles: 12511821 cumulative IPC: 3.996 (Simulation time: 00 hr 53 min 27 sec)
Warmup finished CPU 7 instructions: 50000003 cycles: 12511954 cumulative IPC: 3.996 (Simulation time: 00 hr 53 min 27 sec)
Heartbeat CPU 7 instructions: 50000007 cycles: 12511955 heartbeat IPC: 3.997 cumulative IPC: 3.996 (Simulation time: 00 hr 53 min 27 sec)
Warmup finished CPU 2 instructions: 50000002 cycles: 12514464 cumulative IPC: 3.995 (Simulation time: 00 hr 53 min 28 sec)
Heartbeat CPU 2 instructions: 50000006 cycles: 12514465 heartbeat IPC: 3.996 cumulative IPC: 3.995 (Simulation time: 00 hr 53 min 28 sec)
Heartbeat CPU 1 instructions: 30000002 cycles: 14603502 heartbeat IPC: 1.869 cumulative IPC: 2.054 (Simulation time: 01 hr 02 min 27 sec)
Heartbeat CPU 4 instructions: 60000006 cycles: 15011533 heartbeat IPC: 4 cumulative IPC: 3.997 (Simulation time: 01 hr 04 min 09 sec)
Heartbeat CPU 3 instructions: 60000008 cycles: 15011603 heartbeat IPC: 4 cumulative IPC: 3.997 (Simulation time: 01 hr 04 min 09 sec)
Heartbeat CPU 5 instructions: 60000009 cycles: 15011617 heartbeat IPC: 4 cumulative IPC: 3.997 (Simulation time: 01 hr 04 min 09 sec)
Heartbeat CPU 6 instructions: 60000003 cycles: 15011821 heartbeat IPC: 4 cumulative IPC: 3.997 (Simulation time: 01 hr 04 min 10 sec)
Heartbeat CPU 7 instructions: 60000007 cycles: 15011955 heartbeat IPC: 4 cumulative IPC: 3.997 (Simulation time: 01 hr 04 min 10 sec)
Heartbeat CPU 2 instructions: 60000006 cycles: 15014465 heartbeat IPC: 4 cumulative IPC: 3.996 (Simulation time: 01 hr 04 min 10 sec)
Heartbeat CPU 4 instructions: 70000006 cycles: 17511533 heartbeat IPC: 4 cumulative IPC: 3.997 (Simulation time: 01 hr 14 min 29 sec)
Heartbeat CPU 3 instructions: 70000008 cycles: 17511603 heartbeat IPC: 4 cumulative IPC: 3.997 (Simulation time: 01 hr 14 min 29 sec)
Heartbeat CPU 5 instructions: 70000009 cycles: 17511617 heartbeat IPC: 4 cumulative IPC: 3.997 (Simulation time: 01 hr 14 min 29 sec)
Heartbeat CPU 6 instructions: 70000003 cycles: 17511821 heartbeat IPC: 4 cumulative IPC: 3.997 (Simulation time: 01 hr 14 min 29 sec)
Heartbeat CPU 7 instructions: 70000007 cycles: 17511955 heartbeat IPC: 4 cumulative IPC: 3.997 (Simulation time: 01 hr 14 min 29 sec)
Heartbeat CPU 2 instructions: 70000006 cycles: 17514465 heartbeat IPC: 4 cumulative IPC: 3.997 (Simulation time: 01 hr 14 min 29 sec)
Heartbeat CPU 1 instructions: 40000003 cycles: 18853864 heartbeat IPC: 2.353 cumulative IPC: 2.122 (Simulation time: 01 hr 20 min 03 sec)
Heartbeat CPU 4 instructions: 80000006 cycles: 20011533 heartbeat IPC: 4 cumulative IPC: 3.998 (Simulation time: 01 hr 25 min 13 sec)
Heartbeat CPU 3 instructions: 80000008 cycles: 20011603 heartbeat IPC: 4 cumulative IPC: 3.998 (Simulation time: 01 hr 25 min 13 sec)
Heartbeat CPU 5 instructions: 80000009 cycles: 20011617 heartbeat IPC: 4 cumulative IPC: 3.998 (Simulation time: 01 hr 25 min 13 sec)
Heartbeat CPU 6 instructions: 80000003 cycles: 20011821 heartbeat IPC: 4 cumulative IPC: 3.998 (Simulation time: 01 hr 25 min 13 sec)
Heartbeat CPU 7 instructions: 80000007 cycles: 20011955 heartbeat IPC: 4 cumulative IPC: 3.998 (Simulation time: 01 hr 25 min 13 sec)
Heartbeat CPU 2 instructions: 80000006 cycles: 20014465 heartbeat IPC: 4 cumulative IPC: 3.997 (Simulation time: 01 hr 25 min 13 sec)
*** Reached end of trace: (1, "traces/ocean_8t/ocean1.champsimtrace")
Heartbeat CPU 0 instructions: 10000000 cycles: 20903391 heartbeat IPC: 0.4784 cumulative IPC: 0.4784 (Simulation time: 01 hr 29 min 02 sec)
Heartbeat CPU 4 instructions: 90000006 cycles: 22511533 heartbeat IPC: 4 cumulative IPC: 3.998 (Simulation time: 01 hr 35 min 48 sec)
Heartbeat CPU 3 instructions: 90000008 cycles: 22511603 heartbeat IPC: 4 cumulative IPC: 3.998 (Simulation time: 01 hr 35 min 48 sec)
Heartbeat CPU 5 instructions: 90000009 cycles: 22511617 heartbeat IPC: 4 cumulative IPC: 3.998 (Simulation time: 01 hr 35 min 48 sec)
Heartbeat CPU 6 instructions: 90000003 cycles: 22511821 heartbeat IPC: 4 cumulative IPC: 3.998 (Simulation time: 01 hr 35 min 48 sec)
Heartbeat CPU 7 instructions: 90000007 cycles: 22511955 heartbeat IPC: 4 cumulative IPC: 3.998 (Simulation time: 01 hr 35 min 48 sec)
Heartbeat CPU 2 instructions: 90000006 cycles: 22514465 heartbeat IPC: 4 cumulative IPC: 3.997 (Simulation time: 01 hr 35 min 49 sec)
*** Reached end of trace: (2, "traces/ocean_8t/ocean2.champsimtrace")
*** Reached end of trace: (5, "traces/ocean_8t/ocean5.champsimtrace")
*** Reached end of trace: (4, "traces/ocean_8t/ocean4.champsimtrace")
*** Reached end of trace: (6, "traces/ocean_8t/ocean6.champsimtrace")
*** Reached end of trace: (3, "traces/ocean_8t/ocean3.champsimtrace")
Warmup finished CPU 1 instructions: 50000000 cycles: 22746624 cumulative IPC: 2.198 (Simulation time: 01 hr 36 min 48 sec)
Heartbeat CPU 1 instructions: 50000004 cycles: 22746625 heartbeat IPC: 2.569 cumulative IPC: 2.198 (Simulation time: 01 hr 36 min 48 sec)
*** Reached end of trace: (7, "traces/ocean_8t/ocean7.champsimtrace")
Heartbeat CPU 4 instructions: 100000006 cycles: 25011533 heartbeat IPC: 4 cumulative IPC: 3.998 (Simulation time: 01 hr 46 min 43 sec)
Heartbeat CPU 3 instructions: 100000008 cycles: 25011603 heartbeat IPC: 4 cumulative IPC: 3.998 (Simulation time: 01 hr 46 min 43 sec)
Heartbeat CPU 5 instructions: 100000009 cycles: 25011617 heartbeat IPC: 4 cumulative IPC: 3.998 (Simulation time: 01 hr 46 min 43 sec)
Heartbeat CPU 6 instructions: 100000003 cycles: 25011821 heartbeat IPC: 4 cumulative IPC: 3.998 (Simulation time: 01 hr 46 min 43 sec)
Heartbeat CPU 7 instructions: 100000007 cycles: 25011955 heartbeat IPC: 4 cumulative IPC: 3.998 (Simulation time: 01 hr 46 min 43 sec)
Heartbeat CPU 2 instructions: 100000006 cycles: 25014465 heartbeat IPC: 4 cumulative IPC: 3.998 (Simulation time: 01 hr 46 min 44 sec)
Heartbeat CPU 1 instructions: 60000005 cycles: 26851793 heartbeat IPC: 2.436 cumulative IPC: 2.234 (Simulation time: 01 hr 54 min 21 sec)
Heartbeat CPU 4 instructions: 110000006 cycles: 27511533 heartbeat IPC: 4 cumulative IPC: 3.998 (Simulation time: 01 hr 57 min 01 sec)
Heartbeat CPU 3 instructions: 110000008 cycles: 27511603 heartbeat IPC: 4 cumulative IPC: 3.998 (Simulation time: 01 hr 57 min 01 sec)
Heartbeat CPU 5 instructions: 110000009 cycles: 27511617 heartbeat IPC: 4 cumulative IPC: 3.998 (Simulation time: 01 hr 57 min 01 sec)
Heartbeat CPU 6 instructions: 110000003 cycles: 27511821 heartbeat IPC: 4 cumulative IPC: 3.998 (Simulation time: 01 hr 57 min 01 sec)
Heartbeat CPU 7 instructions: 110000007 cycles: 27511955 heartbeat IPC: 4 cumulative IPC: 3.998 (Simulation time: 01 hr 57 min 01 sec)
Heartbeat CPU 2 instructions: 110000006 cycles: 27514465 heartbeat IPC: 4 cumulative IPC: 3.998 (Simulation time: 01 hr 57 min 01 sec)
Heartbeat CPU 4 instructions: 120000006 cycles: 30011533 heartbeat IPC: 4 cumulative IPC: 3.998 (Simulation time: 02 hr 07 min 00 sec)
Heartbeat CPU 3 instructions: 120000008 cycles: 30011603 heartbeat IPC: 4 cumulative IPC: 3.998 (Simulation time: 02 hr 07 min 00 sec)
Heartbeat CPU 5 instructions: 120000009 cycles: 30011617 heartbeat IPC: 4 cumulative IPC: 3.998 (Simulation time: 02 hr 07 min 00 sec)
Heartbeat CPU 6 instructions: 120000003 cycles: 30011821 heartbeat IPC: 4 cumulative IPC: 3.998 (Simulation time: 02 hr 07 min 00 sec)
Heartbeat CPU 7 instructions: 120000007 cycles: 30011955 heartbeat IPC: 4 cumulative IPC: 3.998 (Simulation time: 02 hr 07 min 00 sec)
Heartbeat CPU 2 instructions: 120000006 cycles: 30014465 heartbeat IPC: 4 cumulative IPC: 3.998 (Simulation time: 02 hr 07 min 01 sec)
Heartbeat CPU 1 instructions: 70000005 cycles: 31021019 heartbeat IPC: 2.399 cumulative IPC: 2.257 (Simulation time: 02 hr 11 min 02 sec)
Heartbeat CPU 4 instructions: 130000006 cycles: 32511533 heartbeat IPC: 4 cumulative IPC: 3.999 (Simulation time: 02 hr 16 min 40 sec)
Heartbeat CPU 3 instructions: 130000008 cycles: 32511603 heartbeat IPC: 4 cumulative IPC: 3.999 (Simulation time: 02 hr 16 min 40 sec)
Heartbeat CPU 5 instructions: 130000009 cycles: 32511617 heartbeat IPC: 4 cumulative IPC: 3.999 (Simulation time: 02 hr 16 min 40 sec)
Heartbeat CPU 6 instructions: 130000003 cycles: 32511821 heartbeat IPC: 4 cumulative IPC: 3.999 (Simulation time: 02 hr 16 min 40 sec)
Heartbeat CPU 7 instructions: 130000007 cycles: 32511955 heartbeat IPC: 4 cumulative IPC: 3.999 (Simulation time: 02 hr 16 min 40 sec)
Heartbeat CPU 2 instructions: 130000006 cycles: 32514465 heartbeat IPC: 4 cumulative IPC: 3.998 (Simulation time: 02 hr 16 min 40 sec)
*** Reached end of trace: (2, "traces/ocean_8t/ocean2.champsimtrace")
*** Reached end of trace: (5, "traces/ocean_8t/ocean5.champsimtrace")
*** Reached end of trace: (4, "traces/ocean_8t/ocean4.champsimtrace")
*** Reached end of trace: (6, "traces/ocean_8t/ocean6.champsimtrace")
*** Reached end of trace: (3, "traces/ocean_8t/ocean3.champsimtrace")
*** Reached end of trace: (7, "traces/ocean_8t/ocean7.champsimtrace")
Heartbeat CPU 4 instructions: 140000006 cycles: 35011533 heartbeat IPC: 4 cumulative IPC: 3.999 (Simulation time: 02 hr 25 min 38 sec)
Heartbeat CPU 3 instructions: 140000008 cycles: 35011603 heartbeat IPC: 4 cumulative IPC: 3.999 (Simulation time: 02 hr 25 min 38 sec)
Heartbeat CPU 5 instructions: 140000009 cycles: 35011617 heartbeat IPC: 4 cumulative IPC: 3.999 (Simulation time: 02 hr 25 min 38 sec)
Heartbeat CPU 6 instructions: 140000003 cycles: 35011821 heartbeat IPC: 4 cumulative IPC: 3.999 (Simulation time: 02 hr 25 min 38 sec)
Heartbeat CPU 7 instructions: 140000007 cycles: 35011955 heartbeat IPC: 4 cumulative IPC: 3.999 (Simulation time: 02 hr 25 min 38 sec)
Heartbeat CPU 2 instructions: 140000006 cycles: 35014465 heartbeat IPC: 4 cumulative IPC: 3.998 (Simulation time: 02 hr 25 min 39 sec)
Heartbeat CPU 1 instructions: 80000005 cycles: 36583386 heartbeat IPC: 1.798 cumulative IPC: 2.187 (Simulation time: 02 hr 31 min 11 sec)
Heartbeat CPU 4 instructions: 150000006 cycles: 37511533 heartbeat IPC: 4 cumulative IPC: 3.999 (Simulation time: 02 hr 34 min 31 sec)
Heartbeat CPU 3 instructions: 150000008 cycles: 37511603 heartbeat IPC: 4 cumulative IPC: 3.999 (Simulation time: 02 hr 34 min 31 sec)
Heartbeat CPU 5 instructions: 150000009 cycles: 37511617 heartbeat IPC: 4 cumulative IPC: 3.999 (Simulation time: 02 hr 34 min 31 sec)
Heartbeat CPU 6 instructions: 150000003 cycles: 37511821 heartbeat IPC: 4 cumulative IPC: 3.999 (Simulation time: 02 hr 34 min 31 sec)
Heartbeat CPU 7 instructions: 150000007 cycles: 37511955 heartbeat IPC: 4 cumulative IPC: 3.999 (Simulation time: 02 hr 34 min 31 sec)
Heartbeat CPU 2 instructions: 150000006 cycles: 37514465 heartbeat IPC: 4 cumulative IPC: 3.998 (Simulation time: 02 hr 34 min 31 sec)
Heartbeat CPU 4 instructions: 160000006 cycles: 40011533 heartbeat IPC: 4 cumulative IPC: 3.999 (Simulation time: 02 hr 43 min 34 sec)
Heartbeat CPU 3 instructions: 160000008 cycles: 40011603 heartbeat IPC: 4 cumulative IPC: 3.999 (Simulation time: 02 hr 43 min 34 sec)
Heartbeat CPU 5 instructions: 160000009 cycles: 40011617 heartbeat IPC: 4 cumulative IPC: 3.999 (Simulation time: 02 hr 43 min 34 sec)
Heartbeat CPU 6 instructions: 160000003 cycles: 40011821 heartbeat IPC: 4 cumulative IPC: 3.999 (Simulation time: 02 hr 43 min 34 sec)
Heartbeat CPU 7 instructions: 160000007 cycles: 40011955 heartbeat IPC: 4 cumulative IPC: 3.999 (Simulation time: 02 hr 43 min 34 sec)
Heartbeat CPU 2 instructions: 160000006 cycles: 40014465 heartbeat IPC: 4 cumulative IPC: 3.999 (Simulation time: 02 hr 43 min 34 sec)
Heartbeat CPU 1 instructions: 90000008 cycles: 40033870 heartbeat IPC: 2.898 cumulative IPC: 2.248 (Simulation time: 02 hr 43 min 39 sec)
*** Reached end of trace: (1, "traces/ocean_8t/ocean1.champsimtrace")
Heartbeat CPU 0 instructions: 20000001 cycles: 42235101 heartbeat IPC: 0.4688 cumulative IPC: 0.4735 (Simulation time: 02 hr 51 min 38 sec)
Heartbeat CPU 4 instructions: 170000006 cycles: 42511533 heartbeat IPC: 4 cumulative IPC: 3.999 (Simulation time: 02 hr 52 min 49 sec)
Heartbeat CPU 3 instructions: 170000008 cycles: 42511603 heartbeat IPC: 4 cumulative IPC: 3.999 (Simulation time: 02 hr 52 min 49 sec)
Heartbeat CPU 5 instructions: 170000009 cycles: 42511617 heartbeat IPC: 4 cumulative IPC: 3.999 (Simulation time: 02 hr 52 min 49 sec)
Heartbeat CPU 6 instructions: 170000003 cycles: 42511821 heartbeat IPC: 4 cumulative IPC: 3.999 (Simulation time: 02 hr 52 min 49 sec)
Heartbeat CPU 7 instructions: 170000007 cycles: 42511955 heartbeat IPC: 4 cumulative IPC: 3.999 (Simulation time: 02 hr 52 min 49 sec)
Heartbeat CPU 2 instructions: 170000006 cycles: 42514465 heartbeat IPC: 4 cumulative IPC: 3.999 (Simulation time: 02 hr 52 min 50 sec)
Heartbeat CPU 1 instructions: 100000009 cycles: 44134124 heartbeat IPC: 2.439 cumulative IPC: 2.266 (Simulation time: 02 hr 59 min 31 sec)
Heartbeat CPU 4 instructions: 180000006 cycles: 45011533 heartbeat IPC: 4 cumulative IPC: 3.999 (Simulation time: 03 hr 03 min 07 sec)
Heartbeat CPU 3 instructions: 180000008 cycles: 45011603 heartbeat IPC: 4 cumulative IPC: 3.999 (Simulation time: 03 hr 03 min 07 sec)
Heartbeat CPU 5 instructions: 180000009 cycles: 45011617 heartbeat IPC: 4 cumulative IPC: 3.999 (Simulation time: 03 hr 03 min 07 sec)
Heartbeat CPU 6 instructions: 180000003 cycles: 45011821 heartbeat IPC: 4 cumulative IPC: 3.999 (Simulation time: 03 hr 03 min 07 sec)
Heartbeat CPU 7 instructions: 180000007 cycles: 45011955 heartbeat IPC: 4 cumulative IPC: 3.999 (Simulation time: 03 hr 03 min 07 sec)
Heartbeat CPU 2 instructions: 180000006 cycles: 45014465 heartbeat IPC: 4 cumulative IPC: 3.999 (Simulation time: 03 hr 03 min 08 sec)
*** Reached end of trace: (2, "traces/ocean_8t/ocean2.champsimtrace")
*** Reached end of trace: (5, "traces/ocean_8t/ocean5.champsimtrace")
*** Reached end of trace: (4, "traces/ocean_8t/ocean4.champsimtrace")
*** Reached end of trace: (6, "traces/ocean_8t/ocean6.champsimtrace")
*** Reached end of trace: (3, "traces/ocean_8t/ocean3.champsimtrace")
*** Reached end of trace: (7, "traces/ocean_8t/ocean7.champsimtrace")
Heartbeat CPU 4 instructions: 190000006 cycles: 47511533 heartbeat IPC: 4 cumulative IPC: 3.999 (Simulation time: 03 hr 13 min 29 sec)
Heartbeat CPU 3 instructions: 190000008 cycles: 47511603 heartbeat IPC: 4 cumulative IPC: 3.999 (Simulation time: 03 hr 13 min 29 sec)
Heartbeat CPU 5 instructions: 190000009 cycles: 47511617 heartbeat IPC: 4 cumulative IPC: 3.999 (Simulation time: 03 hr 13 min 29 sec)
Heartbeat CPU 6 instructions: 190000003 cycles: 47511821 heartbeat IPC: 4 cumulative IPC: 3.999 (Simulation time: 03 hr 13 min 29 sec)
Heartbeat CPU 7 instructions: 190000007 cycles: 47511955 heartbeat IPC: 4 cumulative IPC: 3.999 (Simulation time: 03 hr 13 min 29 sec)
Heartbeat CPU 2 instructions: 190000006 cycles: 47514465 heartbeat IPC: 4 cumulative IPC: 3.999 (Simulation time: 03 hr 13 min 30 sec)
Heartbeat CPU 1 instructions: 110000010 cycles: 48232480 heartbeat IPC: 2.44 cumulative IPC: 2.281 (Simulation time: 03 hr 16 min 28 sec)
Heartbeat CPU 4 instructions: 200000006 cycles: 50011533 heartbeat IPC: 4 cumulative IPC: 3.999 (Simulation time: 03 hr 23 min 47 sec)
Heartbeat CPU 3 instructions: 200000008 cycles: 50011603 heartbeat IPC: 4 cumulative IPC: 3.999 (Simulation time: 03 hr 23 min 47 sec)
Heartbeat CPU 5 instructions: 200000009 cycles: 50011617 heartbeat IPC: 4 cumulative IPC: 3.999 (Simulation time: 03 hr 23 min 47 sec)
Heartbeat CPU 6 instructions: 200000003 cycles: 50011821 heartbeat IPC: 4 cumulative IPC: 3.999 (Simulation time: 03 hr 23 min 47 sec)
Heartbeat CPU 7 instructions: 200000007 cycles: 50011955 heartbeat IPC: 4 cumulative IPC: 3.999 (Simulation time: 03 hr 23 min 47 sec)
Heartbeat CPU 2 instructions: 200000006 cycles: 50014465 heartbeat IPC: 4 cumulative IPC: 3.999 (Simulation time: 03 hr 23 min 48 sec)
Heartbeat CPU 4 instructions: 210000006 cycles: 52511533 heartbeat IPC: 4 cumulative IPC: 3.999 (Simulation time: 03 hr 33 min 51 sec)
Heartbeat CPU 3 instructions: 210000008 cycles: 52511603 heartbeat IPC: 4 cumulative IPC: 3.999 (Simulation time: 03 hr 33 min 51 sec)
Heartbeat CPU 5 instructions: 210000009 cycles: 52511617 heartbeat IPC: 4 cumulative IPC: 3.999 (Simulation time: 03 hr 33 min 51 sec)
Heartbeat CPU 6 instructions: 210000003 cycles: 52511821 heartbeat IPC: 4 cumulative IPC: 3.999 (Simulation time: 03 hr 33 min 51 sec)
Heartbeat CPU 7 instructions: 210000007 cycles: 52511955 heartbeat IPC: 4 cumulative IPC: 3.999 (Simulation time: 03 hr 33 min 52 sec)
Heartbeat CPU 2 instructions: 210000006 cycles: 52514465 heartbeat IPC: 4 cumulative IPC: 3.999 (Simulation time: 03 hr 33 min 52 sec)
Heartbeat CPU 1 instructions: 120000011 cycles: 53171813 heartbeat IPC: 2.025 cumulative IPC: 2.257 (Simulation time: 03 hr 36 min 25 sec)
Heartbeat CPU 4 instructions: 220000006 cycles: 55011533 heartbeat IPC: 4 cumulative IPC: 3.999 (Simulation time: 03 hr 43 min 39 sec)
Heartbeat CPU 3 instructions: 220000008 cycles: 55011603 heartbeat IPC: 4 cumulative IPC: 3.999 (Simulation time: 03 hr 43 min 39 sec)
Heartbeat CPU 5 instructions: 220000009 cycles: 55011617 heartbeat IPC: 4 cumulative IPC: 3.999 (Simulation time: 03 hr 43 min 39 sec)
Heartbeat CPU 6 instructions: 220000003 cycles: 55011821 heartbeat IPC: 4 cumulative IPC: 3.999 (Simulation time: 03 hr 43 min 39 sec)
Heartbeat CPU 7 instructions: 220000007 cycles: 55011955 heartbeat IPC: 4 cumulative IPC: 3.999 (Simulation time: 03 hr 43 min 39 sec)
Heartbeat CPU 2 instructions: 220000006 cycles: 55014465 heartbeat IPC: 4 cumulative IPC: 3.999 (Simulation time: 03 hr 43 min 40 sec)
*** Reached end of trace: (2, "traces/ocean_8t/ocean2.champsimtrace")
*** Reached end of trace: (5, "traces/ocean_8t/ocean5.champsimtrace")
*** Reached end of trace: (4, "traces/ocean_8t/ocean4.champsimtrace")
*** Reached end of trace: (6, "traces/ocean_8t/ocean6.champsimtrace")
*** Reached end of trace: (3, "traces/ocean_8t/ocean3.champsimtrace")
*** Reached end of trace: (7, "traces/ocean_8t/ocean7.champsimtrace")
Heartbeat CPU 4 instructions: 230000006 cycles: 57511533 heartbeat IPC: 4 cumulative IPC: 3.999 (Simulation time: 03 hr 53 min 31 sec)
Heartbeat CPU 3 instructions: 230000008 cycles: 57511603 heartbeat IPC: 4 cumulative IPC: 3.999 (Simulation time: 03 hr 53 min 31 sec)
Heartbeat CPU 5 instructions: 230000009 cycles: 57511617 heartbeat IPC: 4 cumulative IPC: 3.999 (Simulation time: 03 hr 53 min 31 sec)
Heartbeat CPU 6 instructions: 230000003 cycles: 57511821 heartbeat IPC: 4 cumulative IPC: 3.999 (Simulation time: 03 hr 53 min 31 sec)
Heartbeat CPU 7 instructions: 230000007 cycles: 57511955 heartbeat IPC: 4 cumulative IPC: 3.999 (Simulation time: 03 hr 53 min 31 sec)
Heartbeat CPU 2 instructions: 230000006 cycles: 57514465 heartbeat IPC: 4 cumulative IPC: 3.999 (Simulation time: 03 hr 53 min 32 sec)
Heartbeat CPU 1 instructions: 130000011 cycles: 57663897 heartbeat IPC: 2.226 cumulative IPC: 2.254 (Simulation time: 03 hr 54 min 05 sec)
*** Reached end of trace: (1, "traces/ocean_8t/ocean1.champsimtrace")
Heartbeat CPU 4 instructions: 240000006 cycles: 60011533 heartbeat IPC: 4 cumulative IPC: 3.999 (Simulation time: 04 hr 03 min 09 sec)
Heartbeat CPU 3 instructions: 240000008 cycles: 60011603 heartbeat IPC: 4 cumulative IPC: 3.999 (Simulation time: 04 hr 03 min 09 sec)
Heartbeat CPU 5 instructions: 240000009 cycles: 60011617 heartbeat IPC: 4 cumulative IPC: 3.999 (Simulation time: 04 hr 03 min 09 sec)
Heartbeat CPU 6 instructions: 240000003 cycles: 60011821 heartbeat IPC: 4 cumulative IPC: 3.999 (Simulation time: 04 hr 03 min 09 sec)
Heartbeat CPU 7 instructions: 240000007 cycles: 60011955 heartbeat IPC: 4 cumulative IPC: 3.999 (Simulation time: 04 hr 03 min 09 sec)
Heartbeat CPU 2 instructions: 240000006 cycles: 60014465 heartbeat IPC: 4 cumulative IPC: 3.999 (Simulation time: 04 hr 03 min 09 sec)
Heartbeat CPU 1 instructions: 140000011 cycles: 61413731 heartbeat IPC: 2.667 cumulative IPC: 2.28 (Simulation time: 04 hr 08 min 37 sec)
Heartbeat CPU 0 instructions: 30000005 cycles: 62382352 heartbeat IPC: 0.4963 cumulative IPC: 0.4809 (Simulation time: 04 hr 12 min 23 sec)
Heartbeat CPU 4 instructions: 250000006 cycles: 62511533 heartbeat IPC: 4 cumulative IPC: 3.999 (Simulation time: 04 hr 12 min 54 sec)
Heartbeat CPU 3 instructions: 250000008 cycles: 62511603 heartbeat IPC: 4 cumulative IPC: 3.999 (Simulation time: 04 hr 12 min 54 sec)
Heartbeat CPU 5 instructions: 250000009 cycles: 62511617 heartbeat IPC: 4 cumulative IPC: 3.999 (Simulation time: 04 hr 12 min 54 sec)
Heartbeat CPU 6 instructions: 250000003 cycles: 62511821 heartbeat IPC: 4 cumulative IPC: 3.999 (Simulation time: 04 hr 12 min 54 sec)
Heartbeat CPU 7 instructions: 250000007 cycles: 62511955 heartbeat IPC: 4 cumulative IPC: 3.999 (Simulation time: 04 hr 12 min 54 sec)
Heartbeat CPU 2 instructions: 250000006 cycles: 62514465 heartbeat IPC: 4 cumulative IPC: 3.999 (Simulation time: 04 hr 12 min 55 sec)
Heartbeat CPU 4 instructions: 260000006 cycles: 65011533 heartbeat IPC: 4 cumulative IPC: 3.999 (Simulation time: 04 hr 22 min 37 sec)
Heartbeat CPU 3 instructions: 260000008 cycles: 65011603 heartbeat IPC: 4 cumulative IPC: 3.999 (Simulation time: 04 hr 22 min 37 sec)
Heartbeat CPU 5 instructions: 260000009 cycles: 65011617 heartbeat IPC: 4 cumulative IPC: 3.999 (Simulation time: 04 hr 22 min 37 sec)
Heartbeat CPU 6 instructions: 260000003 cycles: 65011821 heartbeat IPC: 4 cumulative IPC: 3.999 (Simulation time: 04 hr 22 min 38 sec)
Heartbeat CPU 7 instructions: 260000007 cycles: 65011955 heartbeat IPC: 4 cumulative IPC: 3.999 (Simulation time: 04 hr 22 min 38 sec)
Heartbeat CPU 2 instructions: 260000006 cycles: 65014465 heartbeat IPC: 4 cumulative IPC: 3.999 (Simulation time: 04 hr 22 min 38 sec)
Heartbeat CPU 1 instructions: 150000011 cycles: 65615541 heartbeat IPC: 2.38 cumulative IPC: 2.286 (Simulation time: 04 hr 25 min 01 sec)
Heartbeat CPU 4 instructions: 270000006 cycles: 67511533 heartbeat IPC: 4 cumulative IPC: 3.999 (Simulation time: 04 hr 32 min 20 sec)
Heartbeat CPU 3 instructions: 270000008 cycles: 67511603 heartbeat IPC: 4 cumulative IPC: 3.999 (Simulation time: 04 hr 32 min 20 sec)
Heartbeat CPU 5 instructions: 270000009 cycles: 67511617 heartbeat IPC: 4 cumulative IPC: 3.999 (Simulation time: 04 hr 32 min 20 sec)
Heartbeat CPU 6 instructions: 270000003 cycles: 67511821 heartbeat IPC: 4 cumulative IPC: 3.999 (Simulation time: 04 hr 32 min 20 sec)
Heartbeat CPU 7 instructions: 270000007 cycles: 67511955 heartbeat IPC: 4 cumulative IPC: 3.999 (Simulation time: 04 hr 32 min 20 sec)
Heartbeat CPU 2 instructions: 270000006 cycles: 67514465 heartbeat IPC: 4 cumulative IPC: 3.999 (Simulation time: 04 hr 32 min 21 sec)
*** Reached end of trace: (2, "traces/ocean_8t/ocean2.champsimtrace")
*** Reached end of trace: (5, "traces/ocean_8t/ocean5.champsimtrace")
*** Reached end of trace: (4, "traces/ocean_8t/ocean4.champsimtrace")
*** Reached end of trace: (6, "traces/ocean_8t/ocean6.champsimtrace")
*** Reached end of trace: (3, "traces/ocean_8t/ocean3.champsimtrace")
*** Reached end of trace: (7, "traces/ocean_8t/ocean7.champsimtrace")
Heartbeat CPU 1 instructions: 160000014 cycles: 69740509 heartbeat IPC: 2.424 cumulative IPC: 2.294 (Simulation time: 04 hr 41 min 03 sec)
Heartbeat CPU 4 instructions: 280000006 cycles: 70011533 heartbeat IPC: 4 cumulative IPC: 3.999 (Simulation time: 04 hr 42 min 06 sec)
Heartbeat CPU 3 instructions: 280000008 cycles: 70011603 heartbeat IPC: 4 cumulative IPC: 3.999 (Simulation time: 04 hr 42 min 06 sec)
Heartbeat CPU 5 instructions: 280000009 cycles: 70011617 heartbeat IPC: 4 cumulative IPC: 3.999 (Simulation time: 04 hr 42 min 06 sec)
Heartbeat CPU 6 instructions: 280000003 cycles: 70011821 heartbeat IPC: 4 cumulative IPC: 3.999 (Simulation time: 04 hr 42 min 06 sec)
Heartbeat CPU 7 instructions: 280000007 cycles: 70011955 heartbeat IPC: 4 cumulative IPC: 3.999 (Simulation time: 04 hr 42 min 06 sec)
Heartbeat CPU 2 instructions: 280000006 cycles: 70014465 heartbeat IPC: 4 cumulative IPC: 3.999 (Simulation time: 04 hr 42 min 07 sec)
Heartbeat CPU 4 instructions: 290000006 cycles: 72511533 heartbeat IPC: 4 cumulative IPC: 3.999 (Simulation time: 04 hr 51 min 49 sec)
Heartbeat CPU 3 instructions: 290000008 cycles: 72511603 heartbeat IPC: 4 cumulative IPC: 3.999 (Simulation time: 04 hr 51 min 49 sec)
Heartbeat CPU 5 instructions: 290000009 cycles: 72511617 heartbeat IPC: 4 cumulative IPC: 3.999 (Simulation time: 04 hr 51 min 49 sec)
Heartbeat CPU 6 instructions: 290000003 cycles: 72511821 heartbeat IPC: 4 cumulative IPC: 3.999 (Simulation time: 04 hr 51 min 49 sec)
Heartbeat CPU 7 instructions: 290000007 cycles: 72511955 heartbeat IPC: 4 cumulative IPC: 3.999 (Simulation time: 04 hr 51 min 49 sec)
Heartbeat CPU 2 instructions: 290000006 cycles: 72514465 heartbeat IPC: 4 cumulative IPC: 3.999 (Simulation time: 04 hr 51 min 50 sec)
Heartbeat CPU 4 instructions: 300000006 cycles: 75011533 heartbeat IPC: 4 cumulative IPC: 3.999 (Simulation time: 05 hr 01 min 50 sec)
Heartbeat CPU 3 instructions: 300000008 cycles: 75011603 heartbeat IPC: 4 cumulative IPC: 3.999 (Simulation time: 05 hr 01 min 50 sec)
Heartbeat CPU 5 instructions: 300000009 cycles: 75011617 heartbeat IPC: 4 cumulative IPC: 3.999 (Simulation time: 05 hr 01 min 50 sec)
Heartbeat CPU 6 instructions: 300000003 cycles: 75011821 heartbeat IPC: 4 cumulative IPC: 3.999 (Simulation time: 05 hr 01 min 50 sec)
Heartbeat CPU 7 instructions: 300000007 cycles: 75011955 heartbeat IPC: 4 cumulative IPC: 3.999 (Simulation time: 05 hr 01 min 50 sec)
Heartbeat CPU 2 instructions: 300000006 cycles: 75014465 heartbeat IPC: 4 cumulative IPC: 3.999 (Simulation time: 05 hr 01 min 51 sec)
Heartbeat CPU 1 instructions: 170000014 cycles: 75321768 heartbeat IPC: 1.792 cumulative IPC: 2.257 (Simulation time: 05 hr 03 min 06 sec)
Heartbeat CPU 4 instructions: 310000006 cycles: 77511533 heartbeat IPC: 4 cumulative IPC: 3.999 (Simulation time: 05 hr 12 min 02 sec)
Heartbeat CPU 3 instructions: 310000008 cycles: 77511603 heartbeat IPC: 4 cumulative IPC: 3.999 (Simulation time: 05 hr 12 min 02 sec)
Heartbeat CPU 5 instructions: 310000009 cycles: 77511617 heartbeat IPC: 4 cumulative IPC: 3.999 (Simulation time: 05 hr 12 min 02 sec)
Heartbeat CPU 6 instructions: 310000003 cycles: 77511821 heartbeat IPC: 4 cumulative IPC: 3.999 (Simulation time: 05 hr 12 min 02 sec)
Heartbeat CPU 7 instructions: 310000007 cycles: 77511955 heartbeat IPC: 4 cumulative IPC: 3.999 (Simulation time: 05 hr 12 min 02 sec)
Heartbeat CPU 2 instructions: 310000006 cycles: 77514465 heartbeat IPC: 4 cumulative IPC: 3.999 (Simulation time: 05 hr 12 min 02 sec)
Heartbeat CPU 1 instructions: 180000017 cycles: 78880870 heartbeat IPC: 2.81 cumulative IPC: 2.282 (Simulation time: 05 hr 17 min 39 sec)
*** Reached end of trace: (2, "traces/ocean_8t/ocean2.champsimtrace")
*** Reached end of trace: (5, "traces/ocean_8t/ocean5.champsimtrace")
*** Reached end of trace: (4, "traces/ocean_8t/ocean4.champsimtrace")
*** Reached end of trace: (6, "traces/ocean_8t/ocean6.champsimtrace")
*** Reached end of trace: (3, "traces/ocean_8t/ocean3.champsimtrace")
*** Reached end of trace: (1, "traces/ocean_8t/ocean1.champsimtrace")
*** Reached end of trace: (7, "traces/ocean_8t/ocean7.champsimtrace")
Heartbeat CPU 4 instructions: 320000006 cycles: 80011533 heartbeat IPC: 4 cumulative IPC: 3.999 (Simulation time: 05 hr 22 min 11 sec)
Heartbeat CPU 3 instructions: 320000008 cycles: 80011603 heartbeat IPC: 4 cumulative IPC: 3.999 (Simulation time: 05 hr 22 min 11 sec)
Heartbeat CPU 5 instructions: 320000009 cycles: 80011617 heartbeat IPC: 4 cumulative IPC: 3.999 (Simulation time: 05 hr 22 min 11 sec)
Heartbeat CPU 6 instructions: 320000003 cycles: 80011821 heartbeat IPC: 4 cumulative IPC: 3.999 (Simulation time: 05 hr 22 min 11 sec)
Heartbeat CPU 7 instructions: 320000007 cycles: 80011955 heartbeat IPC: 4 cumulative IPC: 3.999 (Simulation time: 05 hr 22 min 11 sec)
Heartbeat CPU 2 instructions: 320000006 cycles: 80014465 heartbeat IPC: 4 cumulative IPC: 3.999 (Simulation time: 05 hr 22 min 12 sec)
Heartbeat CPU 4 instructions: 330000006 cycles: 82511533 heartbeat IPC: 4 cumulative IPC: 3.999 (Simulation time: 05 hr 32 min 16 sec)
Heartbeat CPU 3 instructions: 330000008 cycles: 82511603 heartbeat IPC: 4 cumulative IPC: 3.999 (Simulation time: 05 hr 32 min 16 sec)
Heartbeat CPU 5 instructions: 330000009 cycles: 82511617 heartbeat IPC: 4 cumulative IPC: 3.999 (Simulation time: 05 hr 32 min 16 sec)
Heartbeat CPU 6 instructions: 330000003 cycles: 82511821 heartbeat IPC: 4 cumulative IPC: 3.999 (Simulation time: 05 hr 32 min 16 sec)
Heartbeat CPU 7 instructions: 330000007 cycles: 82511955 heartbeat IPC: 4 cumulative IPC: 3.999 (Simulation time: 05 hr 32 min 16 sec)
Heartbeat CPU 2 instructions: 330000006 cycles: 82514465 heartbeat IPC: 4 cumulative IPC: 3.999 (Simulation time: 05 hr 32 min 17 sec)
Heartbeat CPU 1 instructions: 190000020 cycles: 82884781 heartbeat IPC: 2.498 cumulative IPC: 2.292 (Simulation time: 05 hr 33 min 46 sec)
Heartbeat CPU 0 instructions: 40000005 cycles: 84876582 heartbeat IPC: 0.4446 cumulative IPC: 0.4713 (Simulation time: 05 hr 41 min 48 sec)
Heartbeat CPU 4 instructions: 340000006 cycles: 85011533 heartbeat IPC: 4 cumulative IPC: 3.999 (Simulation time: 05 hr 42 min 21 sec)
Heartbeat CPU 3 instructions: 340000008 cycles: 85011603 heartbeat IPC: 4 cumulative IPC: 3.999 (Simulation time: 05 hr 42 min 21 sec)
Heartbeat CPU 5 instructions: 340000009 cycles: 85011617 heartbeat IPC: 4 cumulative IPC: 3.999 (Simulation time: 05 hr 42 min 21 sec)
Heartbeat CPU 6 instructions: 340000003 cycles: 85011821 heartbeat IPC: 4 cumulative IPC: 3.999 (Simulation time: 05 hr 42 min 22 sec)
Heartbeat CPU 7 instructions: 340000007 cycles: 85011955 heartbeat IPC: 4 cumulative IPC: 3.999 (Simulation time: 05 hr 42 min 22 sec)
Heartbeat CPU 2 instructions: 340000006 cycles: 85014465 heartbeat IPC: 4 cumulative IPC: 3.999 (Simulation time: 05 hr 42 min 22 sec)
Heartbeat CPU 1 instructions: 200000020 cycles: 86981995 heartbeat IPC: 2.441 cumulative IPC: 2.299 (Simulation time: 05 hr 50 min 07 sec)
Heartbeat CPU 4 instructions: 350000006 cycles: 87511533 heartbeat IPC: 4 cumulative IPC: 3.999 (Simulation time: 05 hr 52 min 11 sec)
Heartbeat CPU 3 instructions: 350000008 cycles: 87511603 heartbeat IPC: 4 cumulative IPC: 3.999 (Simulation time: 05 hr 52 min 11 sec)
Heartbeat CPU 5 instructions: 350000009 cycles: 87511617 heartbeat IPC: 4 cumulative IPC: 3.999 (Simulation time: 05 hr 52 min 11 sec)
Heartbeat CPU 6 instructions: 350000003 cycles: 87511821 heartbeat IPC: 4 cumulative IPC: 3.999 (Simulation time: 05 hr 52 min 11 sec)
Heartbeat CPU 7 instructions: 350000007 cycles: 87511955 heartbeat IPC: 4 cumulative IPC: 3.999 (Simulation time: 05 hr 52 min 11 sec)
Heartbeat CPU 2 instructions: 350000006 cycles: 87514465 heartbeat IPC: 4 cumulative IPC: 3.999 (Simulation time: 05 hr 52 min 12 sec)
Heartbeat CPU 4 instructions: 360000006 cycles: 90011533 heartbeat IPC: 4 cumulative IPC: 3.999 (Simulation time: 06 hr 02 min 01 sec)
Heartbeat CPU 3 instructions: 360000008 cycles: 90011603 heartbeat IPC: 4 cumulative IPC: 3.999 (Simulation time: 06 hr 02 min 01 sec)
Heartbeat CPU 5 instructions: 360000009 cycles: 90011617 heartbeat IPC: 4 cumulative IPC: 3.999 (Simulation time: 06 hr 02 min 01 sec)
Heartbeat CPU 6 instructions: 360000003 cycles: 90011821 heartbeat IPC: 4 cumulative IPC: 3.999 (Simulation time: 06 hr 02 min 01 sec)
Heartbeat CPU 7 instructions: 360000007 cycles: 90011955 heartbeat IPC: 4 cumulative IPC: 3.999 (Simulation time: 06 hr 02 min 01 sec)
Heartbeat CPU 2 instructions: 360000006 cycles: 90014465 heartbeat IPC: 4 cumulative IPC: 3.999 (Simulation time: 06 hr 02 min 02 sec)
*** Reached end of trace: (2, "traces/ocean_8t/ocean2.champsimtrace")
*** Reached end of trace: (5, "traces/ocean_8t/ocean5.champsimtrace")
*** Reached end of trace: (4, "traces/ocean_8t/ocean4.champsimtrace")
*** Reached end of trace: (6, "traces/ocean_8t/ocean6.champsimtrace")
*** Reached end of trace: (3, "traces/ocean_8t/ocean3.champsimtrace")
*** Reached end of trace: (7, "traces/ocean_8t/ocean7.champsimtrace")
Heartbeat CPU 1 instructions: 210000020 cycles: 91734540 heartbeat IPC: 2.104 cumulative IPC: 2.289 (Simulation time: 06 hr 08 min 26 sec)
Heartbeat CPU 4 instructions: 370000006 cycles: 92511533 heartbeat IPC: 4 cumulative IPC: 4 (Simulation time: 06 hr 11 min 20 sec)
Heartbeat CPU 3 instructions: 370000008 cycles: 92511603 heartbeat IPC: 4 cumulative IPC: 3.999 (Simulation time: 06 hr 11 min 20 sec)
Heartbeat CPU 5 instructions: 370000009 cycles: 92511617 heartbeat IPC: 4 cumulative IPC: 3.999 (Simulation time: 06 hr 11 min 20 sec)
Heartbeat CPU 6 instructions: 370000003 cycles: 92511821 heartbeat IPC: 4 cumulative IPC: 3.999 (Simulation time: 06 hr 11 min 20 sec)
Heartbeat CPU 7 instructions: 370000007 cycles: 92511955 heartbeat IPC: 4 cumulative IPC: 3.999 (Simulation time: 06 hr 11 min 20 sec)
Heartbeat CPU 2 instructions: 370000006 cycles: 92514465 heartbeat IPC: 4 cumulative IPC: 3.999 (Simulation time: 06 hr 11 min 20 sec)
Heartbeat CPU 4 instructions: 380000006 cycles: 95011533 heartbeat IPC: 4 cumulative IPC: 4 (Simulation time: 06 hr 20 min 40 sec)
Heartbeat CPU 3 instructions: 380000008 cycles: 95011603 heartbeat IPC: 4 cumulative IPC: 4 (Simulation time: 06 hr 20 min 40 sec)
Heartbeat CPU 5 instructions: 380000009 cycles: 95011617 heartbeat IPC: 4 cumulative IPC: 4 (Simulation time: 06 hr 20 min 40 sec)
Heartbeat CPU 6 instructions: 380000003 cycles: 95011821 heartbeat IPC: 4 cumulative IPC: 4 (Simulation time: 06 hr 20 min 40 sec)
Heartbeat CPU 7 instructions: 380000007 cycles: 95011955 heartbeat IPC: 4 cumulative IPC: 3.999 (Simulation time: 06 hr 20 min 40 sec)
Heartbeat CPU 2 instructions: 380000006 cycles: 95014465 heartbeat IPC: 4 cumulative IPC: 3.999 (Simulation time: 06 hr 20 min 41 sec)
Heartbeat CPU 1 instructions: 220000022 cycles: 96462005 heartbeat IPC: 2.115 cumulative IPC: 2.281 (Simulation time: 06 hr 26 min 08 sec)
Heartbeat CPU 4 instructions: 390000006 cycles: 97511533 heartbeat IPC: 4 cumulative IPC: 4 (Simulation time: 06 hr 30 min 06 sec)
Heartbeat CPU 3 instructions: 390000008 cycles: 97511603 heartbeat IPC: 4 cumulative IPC: 4 (Simulation time: 06 hr 30 min 06 sec)
Heartbeat CPU 5 instructions: 390000009 cycles: 97511617 heartbeat IPC: 4 cumulative IPC: 4 (Simulation time: 06 hr 30 min 06 sec)
Heartbeat CPU 6 instructions: 390000003 cycles: 97511821 heartbeat IPC: 4 cumulative IPC: 4 (Simulation time: 06 hr 30 min 06 sec)
Heartbeat CPU 7 instructions: 390000007 cycles: 97511955 heartbeat IPC: 4 cumulative IPC: 4 (Simulation time: 06 hr 30 min 06 sec)
Heartbeat CPU 2 instructions: 390000006 cycles: 97514465 heartbeat IPC: 4 cumulative IPC: 3.999 (Simulation time: 06 hr 30 min 07 sec)
*** Reached end of trace: (0, "traces/ocean_8t/ocean0.champsimtrace")
*** Reached end of trace: (1, "traces/ocean_8t/ocean1.champsimtrace")
Heartbeat CPU 4 instructions: 400000006 cycles: 100011533 heartbeat IPC: 4 cumulative IPC: 4 (Simulation time: 06 hr 39 min 32 sec)
Heartbeat CPU 3 instructions: 400000008 cycles: 100011603 heartbeat IPC: 4 cumulative IPC: 4 (Simulation time: 06 hr 39 min 32 sec)
Heartbeat CPU 5 instructions: 400000009 cycles: 100011617 heartbeat IPC: 4 cumulative IPC: 4 (Simulation time: 06 hr 39 min 32 sec)
Heartbeat CPU 6 instructions: 400000003 cycles: 100011821 heartbeat IPC: 4 cumulative IPC: 4 (Simulation time: 06 hr 39 min 32 sec)
Heartbeat CPU 7 instructions: 400000007 cycles: 100011955 heartbeat IPC: 4 cumulative IPC: 4 (Simulation time: 06 hr 39 min 32 sec)
Heartbeat CPU 2 instructions: 400000006 cycles: 100014465 heartbeat IPC: 4 cumulative IPC: 3.999 (Simulation time: 06 hr 39 min 33 sec)
Heartbeat CPU 1 instructions: 230000024 cycles: 100184836 heartbeat IPC: 2.686 cumulative IPC: 2.296 (Simulation time: 06 hr 40 min 12 sec)
*** Reached end of trace: (2, "traces/ocean_8t/ocean2.champsimtrace")
*** Reached end of trace: (5, "traces/ocean_8t/ocean5.champsimtrace")
*** Reached end of trace: (4, "traces/ocean_8t/ocean4.champsimtrace")
*** Reached end of trace: (6, "traces/ocean_8t/ocean6.champsimtrace")
*** Reached end of trace: (3, "traces/ocean_8t/ocean3.champsimtrace")
*** Reached end of trace: (7, "traces/ocean_8t/ocean7.champsimtrace")
Heartbeat CPU 4 instructions: 410000006 cycles: 102511533 heartbeat IPC: 4 cumulative IPC: 4 (Simulation time: 06 hr 48 min 53 sec)
Heartbeat CPU 3 instructions: 410000008 cycles: 102511603 heartbeat IPC: 4 cumulative IPC: 4 (Simulation time: 06 hr 48 min 53 sec)
Heartbeat CPU 5 instructions: 410000009 cycles: 102511617 heartbeat IPC: 4 cumulative IPC: 4 (Simulation time: 06 hr 48 min 53 sec)
Heartbeat CPU 6 instructions: 410000003 cycles: 102511821 heartbeat IPC: 4 cumulative IPC: 4 (Simulation time: 06 hr 48 min 53 sec)
Heartbeat CPU 7 instructions: 410000007 cycles: 102511955 heartbeat IPC: 4 cumulative IPC: 4 (Simulation time: 06 hr 48 min 53 sec)
Heartbeat CPU 2 instructions: 410000006 cycles: 102514465 heartbeat IPC: 4 cumulative IPC: 3.999 (Simulation time: 06 hr 48 min 54 sec)
Heartbeat CPU 1 instructions: 240000025 cycles: 104353881 heartbeat IPC: 2.399 cumulative IPC: 2.3 (Simulation time: 06 hr 54 min 57 sec)
Heartbeat CPU 4 instructions: 420000006 cycles: 105011533 heartbeat IPC: 4 cumulative IPC: 4 (Simulation time: 06 hr 57 min 25 sec)
Heartbeat CPU 3 instructions: 420000008 cycles: 105011603 heartbeat IPC: 4 cumulative IPC: 4 (Simulation time: 06 hr 57 min 25 sec)
Heartbeat CPU 5 instructions: 420000009 cycles: 105011617 heartbeat IPC: 4 cumulative IPC: 4 (Simulation time: 06 hr 57 min 25 sec)
Heartbeat CPU 6 instructions: 420000003 cycles: 105011821 heartbeat IPC: 4 cumulative IPC: 4 (Simulation time: 06 hr 57 min 25 sec)
Heartbeat CPU 7 instructions: 420000007 cycles: 105011955 heartbeat IPC: 4 cumulative IPC: 4 (Simulation time: 06 hr 57 min 25 sec)
Heartbeat CPU 2 instructions: 420000006 cycles: 105014465 heartbeat IPC: 4 cumulative IPC: 3.999 (Simulation time: 06 hr 57 min 25 sec)
Warmup finished CPU 0 instructions: 50000000 cycles: 106747277 cumulative IPC: 0.4684 (Simulation time: 07 hr 03 min 56 sec)
Warmup complete CPU 7 instructions: 426941295 cycles: 106747277 cumulative IPC: 4 (Simulation time: 07 hr 03 min 56 sec)
Warmup complete CPU 6 instructions: 426941827 cycles: 106747277 cumulative IPC: 4 (Simulation time: 07 hr 03 min 56 sec)
Warmup complete CPU 5 instructions: 426942649 cycles: 106747277 cumulative IPC: 4 (Simulation time: 07 hr 03 min 56 sec)
Warmup complete CPU 4 instructions: 426942982 cycles: 106747277 cumulative IPC: 4 (Simulation time: 07 hr 03 min 56 sec)
Warmup complete CPU 3 instructions: 426942704 cycles: 106747277 cumulative IPC: 4 (Simulation time: 07 hr 03 min 56 sec)
Warmup complete CPU 2 instructions: 426931254 cycles: 106747277 cumulative IPC: 3.999 (Simulation time: 07 hr 03 min 56 sec)
Warmup complete CPU 1 instructions: 246005213 cycles: 106747277 cumulative IPC: 2.305 (Simulation time: 07 hr 03 min 56 sec)
Warmup complete CPU 0 instructions: 50000000 cycles: 106747277 cumulative IPC: 0.4684 (Simulation time: 07 hr 03 min 56 sec)
Heartbeat CPU 0 instructions: 50000008 cycles: 106747457 heartbeat IPC: 0.4572 cumulative IPC: 0.04444 (Simulation time: 07 hr 03 min 56 sec)
Heartbeat CPU 4 instructions: 430000006 cycles: 107511533 heartbeat IPC: 4 cumulative IPC: 4 (Simulation time: 07 hr 06 min 52 sec)
Heartbeat CPU 3 instructions: 430000008 cycles: 107511603 heartbeat IPC: 4 cumulative IPC: 4 (Simulation time: 07 hr 06 min 52 sec)
Heartbeat CPU 5 instructions: 430000009 cycles: 107511617 heartbeat IPC: 4 cumulative IPC: 4 (Simulation time: 07 hr 06 min 52 sec)
Heartbeat CPU 6 instructions: 430000003 cycles: 107511821 heartbeat IPC: 4 cumulative IPC: 4 (Simulation time: 07 hr 06 min 52 sec)
Heartbeat CPU 7 instructions: 430000007 cycles: 107511955 heartbeat IPC: 4 cumulative IPC: 4 (Simulation time: 07 hr 06 min 52 sec)
Heartbeat CPU 2 instructions: 430000006 cycles: 107514465 heartbeat IPC: 4 cumulative IPC: 4 (Simulation time: 07 hr 06 min 53 sec)
Heartbeat CPU 4 instructions: 440000006 cycles: 110011533 heartbeat IPC: 4 cumulative IPC: 4 (Simulation time: 07 hr 16 min 32 sec)
Heartbeat CPU 3 instructions: 440000008 cycles: 110011603 heartbeat IPC: 4 cumulative IPC: 4 (Simulation time: 07 hr 16 min 32 sec)
Heartbeat CPU 5 instructions: 440000009 cycles: 110011617 heartbeat IPC: 4 cumulative IPC: 4 (Simulation time: 07 hr 16 min 32 sec)
Heartbeat CPU 6 instructions: 440000003 cycles: 110011821 heartbeat IPC: 4 cumulative IPC: 4 (Simulation time: 07 hr 16 min 32 sec)
Heartbeat CPU 7 instructions: 440000007 cycles: 110011955 heartbeat IPC: 4 cumulative IPC: 4 (Simulation time: 07 hr 16 min 32 sec)
Heartbeat CPU 2 instructions: 440000006 cycles: 110014465 heartbeat IPC: 4 cumulative IPC: 4 (Simulation time: 07 hr 16 min 33 sec)
Heartbeat CPU 4 instructions: 450000006 cycles: 112511533 heartbeat IPC: 4 cumulative IPC: 4 (Simulation time: 07 hr 26 min 13 sec)
Heartbeat CPU 3 instructions: 450000008 cycles: 112511603 heartbeat IPC: 4 cumulative IPC: 4 (Simulation time: 07 hr 26 min 13 sec)
Heartbeat CPU 5 instructions: 450000009 cycles: 112511617 heartbeat IPC: 4 cumulative IPC: 4 (Simulation time: 07 hr 26 min 13 sec)
Heartbeat CPU 6 instructions: 450000003 cycles: 112511821 heartbeat IPC: 4 cumulative IPC: 4 (Simulation time: 07 hr 26 min 13 sec)
Heartbeat CPU 7 instructions: 450000007 cycles: 112511955 heartbeat IPC: 4 cumulative IPC: 4 (Simulation time: 07 hr 26 min 13 sec)
Heartbeat CPU 2 instructions: 450000006 cycles: 112514465 heartbeat IPC: 4 cumulative IPC: 4 (Simulation time: 07 hr 26 min 14 sec)
*** Reached end of trace: (2, "traces/ocean_8t/ocean2.champsimtrace")
*** Reached end of trace: (5, "traces/ocean_8t/ocean5.champsimtrace")
*** Reached end of trace: (4, "traces/ocean_8t/ocean4.champsimtrace")
*** Reached end of trace: (6, "traces/ocean_8t/ocean6.champsimtrace")
*** Reached end of trace: (3, "traces/ocean_8t/ocean3.champsimtrace")
*** Reached end of trace: (7, "traces/ocean_8t/ocean7.champsimtrace")
Heartbeat CPU 4 instructions: 460000008 cycles: 115011575 heartbeat IPC: 4 cumulative IPC: 4 (Simulation time: 07 hr 35 min 57 sec)
Heartbeat CPU 3 instructions: 460000010 cycles: 115011618 heartbeat IPC: 4 cumulative IPC: 4 (Simulation time: 07 hr 35 min 57 sec)
Heartbeat CPU 5 instructions: 460000009 cycles: 115011641 heartbeat IPC: 4 cumulative IPC: 4 (Simulation time: 07 hr 35 min 57 sec)
Heartbeat CPU 6 instructions: 460000003 cycles: 115011848 heartbeat IPC: 4 cumulative IPC: 4 (Simulation time: 07 hr 35 min 58 sec)
Heartbeat CPU 7 instructions: 460000008 cycles: 115011986 heartbeat IPC: 4 cumulative IPC: 4 (Simulation time: 07 hr 35 min 58 sec)
Heartbeat CPU 2 instructions: 460000007 cycles: 115014508 heartbeat IPC: 4 cumulative IPC: 4 (Simulation time: 07 hr 35 min 58 sec)
Heartbeat CPU 4 instructions: 470000008 cycles: 117511575 heartbeat IPC: 4 cumulative IPC: 4 (Simulation time: 07 hr 45 min 30 sec)
Heartbeat CPU 3 instructions: 470000010 cycles: 117511618 heartbeat IPC: 4 cumulative IPC: 4 (Simulation time: 07 hr 45 min 30 sec)
Heartbeat CPU 5 instructions: 470000009 cycles: 117511641 heartbeat IPC: 4 cumulative IPC: 4 (Simulation time: 07 hr 45 min 30 sec)
Heartbeat CPU 6 instructions: 470000003 cycles: 117511848 heartbeat IPC: 4 cumulative IPC: 4 (Simulation time: 07 hr 45 min 30 sec)
Heartbeat CPU 7 instructions: 470000008 cycles: 117511986 heartbeat IPC: 4 cumulative IPC: 4 (Simulation time: 07 hr 45 min 30 sec)
Heartbeat CPU 2 instructions: 470000007 cycles: 117514508 heartbeat IPC: 4 cumulative IPC: 4 (Simulation time: 07 hr 45 min 31 sec)
Heartbeat CPU 1 instructions: 250000025 cycles: 118793970 heartbeat IPC: 0.6925 cumulative IPC: 0.3316 (Simulation time: 07 hr 50 min 12 sec)
Heartbeat CPU 4 instructions: 480000008 cycles: 120011575 heartbeat IPC: 4 cumulative IPC: 4 (Simulation time: 07 hr 54 min 41 sec)
Heartbeat CPU 3 instructions: 480000010 cycles: 120011618 heartbeat IPC: 4 cumulative IPC: 4 (Simulation time: 07 hr 54 min 41 sec)
Heartbeat CPU 5 instructions: 480000009 cycles: 120011641 heartbeat IPC: 4 cumulative IPC: 4 (Simulation time: 07 hr 54 min 41 sec)
Heartbeat CPU 6 instructions: 480000003 cycles: 120011848 heartbeat IPC: 4 cumulative IPC: 4 (Simulation time: 07 hr 54 min 41 sec)
Heartbeat CPU 7 instructions: 480000008 cycles: 120011986 heartbeat IPC: 4 cumulative IPC: 4 (Simulation time: 07 hr 54 min 41 sec)
Heartbeat CPU 2 instructions: 480000007 cycles: 120014508 heartbeat IPC: 4 cumulative IPC: 4 (Simulation time: 07 hr 54 min 42 sec)
Heartbeat CPU 4 instructions: 490000008 cycles: 122511575 heartbeat IPC: 4 cumulative IPC: 4 (Simulation time: 08 hr 03 min 55 sec)
Heartbeat CPU 3 instructions: 490000010 cycles: 122511618 heartbeat IPC: 4 cumulative IPC: 4 (Simulation time: 08 hr 03 min 55 sec)
Heartbeat CPU 5 instructions: 490000009 cycles: 122511641 heartbeat IPC: 4 cumulative IPC: 4 (Simulation time: 08 hr 03 min 55 sec)
Heartbeat CPU 6 instructions: 490000003 cycles: 122511848 heartbeat IPC: 4 cumulative IPC: 4 (Simulation time: 08 hr 03 min 55 sec)
Heartbeat CPU 7 instructions: 490000008 cycles: 122511986 heartbeat IPC: 4 cumulative IPC: 4 (Simulation time: 08 hr 03 min 55 sec)
Heartbeat CPU 2 instructions: 490000007 cycles: 122514508 heartbeat IPC: 4 cumulative IPC: 4 (Simulation time: 08 hr 03 min 56 sec)
*** Reached end of trace: (2, "traces/ocean_8t/ocean2.champsimtrace")
*** Reached end of trace: (5, "traces/ocean_8t/ocean5.champsimtrace")
*** Reached end of trace: (4, "traces/ocean_8t/ocean4.champsimtrace")
*** Reached end of trace: (6, "traces/ocean_8t/ocean6.champsimtrace")
*** Reached end of trace: (3, "traces/ocean_8t/ocean3.champsimtrace")
Heartbeat CPU 4 instructions: 500000009 cycles: 125011608 heartbeat IPC: 4 cumulative IPC: 4 (Simulation time: 08 hr 13 min 22 sec)
Heartbeat CPU 3 instructions: 500000013 cycles: 125011633 heartbeat IPC: 4 cumulative IPC: 4 (Simulation time: 08 hr 13 min 22 sec)
Heartbeat CPU 5 instructions: 500000009 cycles: 125011662 heartbeat IPC: 4 cumulative IPC: 4 (Simulation time: 08 hr 13 min 22 sec)
Heartbeat CPU 6 instructions: 500000004 cycles: 125011881 heartbeat IPC: 4 cumulative IPC: 4 (Simulation time: 08 hr 13 min 22 sec)
Heartbeat CPU 7 instructions: 500000008 cycles: 125011986 heartbeat IPC: 4 cumulative IPC: 4 (Simulation time: 08 hr 13 min 22 sec)
Heartbeat CPU 2 instructions: 500000008 cycles: 125014551 heartbeat IPC: 4 cumulative IPC: 4 (Simulation time: 08 hr 13 min 23 sec)
*** Reached end of trace: (7, "traces/ocean_8t/ocean7.champsimtrace")
Heartbeat CPU 4 instructions: 510000009 cycles: 127511608 heartbeat IPC: 4 cumulative IPC: 4 (Simulation time: 08 hr 22 min 52 sec)
Heartbeat CPU 3 instructions: 510000013 cycles: 127511633 heartbeat IPC: 4 cumulative IPC: 4 (Simulation time: 08 hr 22 min 52 sec)
Heartbeat CPU 5 instructions: 510000009 cycles: 127511662 heartbeat IPC: 4 cumulative IPC: 4 (Simulation time: 08 hr 22 min 52 sec)
Heartbeat CPU 6 instructions: 510000004 cycles: 127511881 heartbeat IPC: 4 cumulative IPC: 4 (Simulation time: 08 hr 22 min 52 sec)
Heartbeat CPU 7 instructions: 510000010 cycles: 127512018 heartbeat IPC: 4 cumulative IPC: 4 (Simulation time: 08 hr 22 min 52 sec)
Heartbeat CPU 2 instructions: 510000008 cycles: 127514551 heartbeat IPC: 4 cumulative IPC: 4 (Simulation time: 08 hr 22 min 53 sec)
Heartbeat CPU 4 instructions: 520000009 cycles: 130011608 heartbeat IPC: 4 cumulative IPC: 4 (Simulation time: 08 hr 32 min 11 sec)
Heartbeat CPU 3 instructions: 520000013 cycles: 130011633 heartbeat IPC: 4 cumulative IPC: 4 (Simulation time: 08 hr 32 min 11 sec)
Heartbeat CPU 5 instructions: 520000009 cycles: 130011662 heartbeat IPC: 4 cumulative IPC: 4 (Simulation time: 08 hr 32 min 11 sec)
Heartbeat CPU 6 instructions: 520000004 cycles: 130011881 heartbeat IPC: 4 cumulative IPC: 4 (Simulation time: 08 hr 32 min 11 sec)
Heartbeat CPU 7 instructions: 520000010 cycles: 130012018 heartbeat IPC: 4 cumulative IPC: 4 (Simulation time: 08 hr 32 min 11 sec)
Heartbeat CPU 2 instructions: 520000008 cycles: 130014551 heartbeat IPC: 4 cumulative IPC: 4 (Simulation time: 08 hr 32 min 12 sec)
Simulation finished CPU 3 instructions: 100000001 cycles: 25000029 cumulative IPC: 4 (Simulation time: 08 hr 38 min 41 sec)
Simulation finished CPU 5 instructions: 100000000 cycles: 25000045 cumulative IPC: 4 (Simulation time: 08 hr 38 min 41 sec)
Simulation finished CPU 6 instructions: 100000001 cycles: 25000060 cumulative IPC: 4 (Simulation time: 08 hr 38 min 41 sec)
Simulation finished CPU 7 instructions: 100000003 cycles: 25000063 cumulative IPC: 4 (Simulation time: 08 hr 38 min 41 sec)
Simulation finished CPU 4 instructions: 100000003 cycles: 25000075 cumulative IPC: 4 (Simulation time: 08 hr 38 min 41 sec)
Simulation finished CPU 2 instructions: 100000002 cycles: 25000086 cumulative IPC: 4 (Simulation time: 08 hr 38 min 41 sec)
Heartbeat CPU 4 instructions: 530000009 cycles: 132511608 heartbeat IPC: 4 cumulative IPC: 4 (Simulation time: 08 hr 41 min 32 sec)
Heartbeat CPU 3 instructions: 530000013 cycles: 132511633 heartbeat IPC: 4 cumulative IPC: 4 (Simulation time: 08 hr 41 min 32 sec)
Heartbeat CPU 5 instructions: 530000009 cycles: 132511662 heartbeat IPC: 4 cumulative IPC: 4 (Simulation time: 08 hr 41 min 32 sec)
Heartbeat CPU 6 instructions: 530000004 cycles: 132511881 heartbeat IPC: 4 cumulative IPC: 4 (Simulation time: 08 hr 41 min 32 sec)
Heartbeat CPU 7 instructions: 530000010 cycles: 132512018 heartbeat IPC: 4 cumulative IPC: 4 (Simulation time: 08 hr 41 min 32 sec)
Heartbeat CPU 2 instructions: 530000008 cycles: 132514551 heartbeat IPC: 4 cumulative IPC: 4 (Simulation time: 08 hr 41 min 32 sec)
Heartbeat CPU 4 instructions: 540000009 cycles: 135011608 heartbeat IPC: 4 cumulative IPC: 4 (Simulation time: 08 hr 51 min 03 sec)
Heartbeat CPU 3 instructions: 540000013 cycles: 135011633 heartbeat IPC: 4 cumulative IPC: 4 (Simulation time: 08 hr 51 min 03 sec)
Heartbeat CPU 5 instructions: 540000009 cycles: 135011662 heartbeat IPC: 4 cumulative IPC: 4 (Simulation time: 08 hr 51 min 03 sec)
Heartbeat CPU 6 instructions: 540000004 cycles: 135011881 heartbeat IPC: 4 cumulative IPC: 4 (Simulation time: 08 hr 51 min 03 sec)
Heartbeat CPU 7 instructions: 540000010 cycles: 135012018 heartbeat IPC: 4 cumulative IPC: 4 (Simulation time: 08 hr 51 min 03 sec)
Heartbeat CPU 2 instructions: 540000008 cycles: 135014551 heartbeat IPC: 4 cumulative IPC: 4 (Simulation time: 08 hr 51 min 03 sec)
*** Reached end of trace: (2, "traces/ocean_8t/ocean2.champsimtrace")
*** Reached end of trace: (5, "traces/ocean_8t/ocean5.champsimtrace")
*** Reached end of trace: (4, "traces/ocean_8t/ocean4.champsimtrace")
*** Reached end of trace: (6, "traces/ocean_8t/ocean6.champsimtrace")
*** Reached end of trace: (3, "traces/ocean_8t/ocean3.champsimtrace")
*** Reached end of trace: (7, "traces/ocean_8t/ocean7.champsimtrace")
Heartbeat CPU 4 instructions: 550000010 cycles: 137511641 heartbeat IPC: 4 cumulative IPC: 4 (Simulation time: 09 hr 00 min 41 sec)
Heartbeat CPU 3 instructions: 550000016 cycles: 137511648 heartbeat IPC: 4 cumulative IPC: 4 (Simulation time: 09 hr 00 min 41 sec)
Heartbeat CPU 5 instructions: 550000009 cycles: 137511683 heartbeat IPC: 4 cumulative IPC: 4 (Simulation time: 09 hr 00 min 41 sec)
Heartbeat CPU 6 instructions: 550000005 cycles: 137511914 heartbeat IPC: 4 cumulative IPC: 4 (Simulation time: 09 hr 00 min 41 sec)
Heartbeat CPU 7 instructions: 550000012 cycles: 137512050 heartbeat IPC: 4 cumulative IPC: 4 (Simulation time: 09 hr 00 min 42 sec)
Heartbeat CPU 2 instructions: 550000009 cycles: 137514594 heartbeat IPC: 4 cumulative IPC: 4 (Simulation time: 09 hr 00 min 42 sec)
Heartbeat CPU 4 instructions: 560000010 cycles: 140011641 heartbeat IPC: 4 cumulative IPC: 4 (Simulation time: 09 hr 10 min 12 sec)
Heartbeat CPU 3 instructions: 560000016 cycles: 140011648 heartbeat IPC: 4 cumulative IPC: 4 (Simulation time: 09 hr 10 min 12 sec)
Heartbeat CPU 5 instructions: 560000009 cycles: 140011683 heartbeat IPC: 4 cumulative IPC: 4 (Simulation time: 09 hr 10 min 12 sec)
Heartbeat CPU 6 instructions: 560000005 cycles: 140011914 heartbeat IPC: 4 cumulative IPC: 4 (Simulation time: 09 hr 10 min 12 sec)
Heartbeat CPU 7 instructions: 560000012 cycles: 140012050 heartbeat IPC: 4 cumulative IPC: 4 (Simulation time: 09 hr 10 min 12 sec)
Heartbeat CPU 2 instructions: 560000009 cycles: 140014594 heartbeat IPC: 4 cumulative IPC: 4 (Simulation time: 09 hr 10 min 13 sec)
Heartbeat CPU 4 instructions: 570000010 cycles: 142511641 heartbeat IPC: 4 cumulative IPC: 4 (Simulation time: 09 hr 19 min 42 sec)
Heartbeat CPU 3 instructions: 570000016 cycles: 142511648 heartbeat IPC: 4 cumulative IPC: 4 (Simulation time: 09 hr 19 min 42 sec)
Heartbeat CPU 5 instructions: 570000009 cycles: 142511683 heartbeat IPC: 4 cumulative IPC: 4 (Simulation time: 09 hr 19 min 42 sec)
Heartbeat CPU 6 instructions: 570000005 cycles: 142511914 heartbeat IPC: 4 cumulative IPC: 4 (Simulation time: 09 hr 19 min 42 sec)
Heartbeat CPU 7 instructions: 570000012 cycles: 142512050 heartbeat IPC: 4 cumulative IPC: 4 (Simulation time: 09 hr 19 min 42 sec)
Heartbeat CPU 2 instructions: 570000009 cycles: 142514594 heartbeat IPC: 4 cumulative IPC: 4 (Simulation time: 09 hr 19 min 43 sec)
Heartbeat CPU 4 instructions: 580000010 cycles: 145011641 heartbeat IPC: 4 cumulative IPC: 4 (Simulation time: 09 hr 29 min 23 sec)
Heartbeat CPU 3 instructions: 580000016 cycles: 145011648 heartbeat IPC: 4 cumulative IPC: 4 (Simulation time: 09 hr 29 min 23 sec)
Heartbeat CPU 5 instructions: 580000009 cycles: 145011683 heartbeat IPC: 4 cumulative IPC: 4 (Simulation time: 09 hr 29 min 23 sec)
Heartbeat CPU 6 instructions: 580000005 cycles: 145011914 heartbeat IPC: 4 cumulative IPC: 4 (Simulation time: 09 hr 29 min 23 sec)
Heartbeat CPU 7 instructions: 580000012 cycles: 145012050 heartbeat IPC: 4 cumulative IPC: 4 (Simulation time: 09 hr 29 min 23 sec)
Heartbeat CPU 2 instructions: 580000009 cycles: 145014594 heartbeat IPC: 4 cumulative IPC: 4 (Simulation time: 09 hr 29 min 24 sec)
*** Reached end of trace: (2, "traces/ocean_8t/ocean2.champsimtrace")
*** Reached end of trace: (5, "traces/ocean_8t/ocean5.champsimtrace")
*** Reached end of trace: (4, "traces/ocean_8t/ocean4.champsimtrace")
*** Reached end of trace: (6, "traces/ocean_8t/ocean6.champsimtrace")
Heartbeat CPU 3 instructions: 590000016 cycles: 147511648 heartbeat IPC: 4 cumulative IPC: 4 (Simulation time: 09 hr 38 min 47 sec)
Heartbeat CPU 4 instructions: 590000011 cycles: 147511674 heartbeat IPC: 4 cumulative IPC: 4 (Simulation time: 09 hr 38 min 47 sec)
Heartbeat CPU 5 instructions: 590000009 cycles: 147511704 heartbeat IPC: 4 cumulative IPC: 4 (Simulation time: 09 hr 38 min 47 sec)
Heartbeat CPU 6 instructions: 590000006 cycles: 147511947 heartbeat IPC: 4 cumulative IPC: 4 (Simulation time: 09 hr 38 min 47 sec)
Heartbeat CPU 7 instructions: 590000012 cycles: 147512050 heartbeat IPC: 4 cumulative IPC: 4 (Simulation time: 09 hr 38 min 47 sec)
Heartbeat CPU 2 instructions: 590000010 cycles: 147514637 heartbeat IPC: 4 cumulative IPC: 4 (Simulation time: 09 hr 38 min 48 sec)
*** Reached end of trace: (3, "traces/ocean_8t/ocean3.champsimtrace")
*** Reached end of trace: (7, "traces/ocean_8t/ocean7.champsimtrace")
Heartbeat CPU 3 instructions: 600000019 cycles: 150011663 heartbeat IPC: 4 cumulative IPC: 4 (Simulation time: 09 hr 48 min 20 sec)
Heartbeat CPU 4 instructions: 600000011 cycles: 150011674 heartbeat IPC: 4 cumulative IPC: 4 (Simulation time: 09 hr 48 min 20 sec)
Heartbeat CPU 5 instructions: 600000009 cycles: 150011704 heartbeat IPC: 4 cumulative IPC: 4 (Simulation time: 09 hr 48 min 20 sec)
Heartbeat CPU 6 instructions: 600000006 cycles: 150011947 heartbeat IPC: 4 cumulative IPC: 4 (Simulation time: 09 hr 48 min 21 sec)
Heartbeat CPU 7 instructions: 600000014 cycles: 150012082 heartbeat IPC: 4 cumulative IPC: 4 (Simulation time: 09 hr 48 min 21 sec)
Heartbeat CPU 2 instructions: 600000010 cycles: 150014637 heartbeat IPC: 4 cumulative IPC: 4 (Simulation time: 09 hr 48 min 21 sec)
Heartbeat CPU 3 instructions: 610000019 cycles: 152511663 heartbeat IPC: 4 cumulative IPC: 4 (Simulation time: 09 hr 57 min 44 sec)
Heartbeat CPU 4 instructions: 610000011 cycles: 152511674 heartbeat IPC: 4 cumulative IPC: 4 (Simulation time: 09 hr 57 min 44 sec)
Heartbeat CPU 5 instructions: 610000009 cycles: 152511704 heartbeat IPC: 4 cumulative IPC: 4 (Simulation time: 09 hr 57 min 44 sec)
Heartbeat CPU 6 instructions: 610000006 cycles: 152511947 heartbeat IPC: 4 cumulative IPC: 4 (Simulation time: 09 hr 57 min 44 sec)
Heartbeat CPU 7 instructions: 610000014 cycles: 152512082 heartbeat IPC: 4 cumulative IPC: 4 (Simulation time: 09 hr 57 min 44 sec)
Heartbeat CPU 2 instructions: 610000010 cycles: 152514637 heartbeat IPC: 4 cumulative IPC: 4 (Simulation time: 09 hr 57 min 45 sec)
Heartbeat CPU 0 instructions: 60000011 cycles: 153317263 heartbeat IPC: 0.2147 cumulative IPC: 0.2147 (Simulation time: 10 hr 00 min 52 sec)
Heartbeat CPU 3 instructions: 620000019 cycles: 155011663 heartbeat IPC: 4 cumulative IPC: 4 (Simulation time: 10 hr 07 min 39 sec)
Heartbeat CPU 4 instructions: 620000011 cycles: 155011674 heartbeat IPC: 4 cumulative IPC: 4 (Simulation time: 10 hr 07 min 39 sec)
Heartbeat CPU 5 instructions: 620000009 cycles: 155011704 heartbeat IPC: 4 cumulative IPC: 4 (Simulation time: 10 hr 07 min 39 sec)
Heartbeat CPU 6 instructions: 620000006 cycles: 155011947 heartbeat IPC: 4 cumulative IPC: 4 (Simulation time: 10 hr 07 min 39 sec)
Heartbeat CPU 7 instructions: 620000014 cycles: 155012082 heartbeat IPC: 4 cumulative IPC: 4 (Simulation time: 10 hr 07 min 39 sec)
Heartbeat CPU 2 instructions: 620000010 cycles: 155014637 heartbeat IPC: 4 cumulative IPC: 4 (Simulation time: 10 hr 07 min 40 sec)
Heartbeat CPU 3 instructions: 630000019 cycles: 157511663 heartbeat IPC: 4 cumulative IPC: 4 (Simulation time: 10 hr 17 min 36 sec)
Heartbeat CPU 4 instructions: 630000011 cycles: 157511674 heartbeat IPC: 4 cumulative IPC: 4 (Simulation time: 10 hr 17 min 36 sec)
Heartbeat CPU 5 instructions: 630000009 cycles: 157511704 heartbeat IPC: 4 cumulative IPC: 4 (Simulation time: 10 hr 17 min 36 sec)
Heartbeat CPU 6 instructions: 630000006 cycles: 157511947 heartbeat IPC: 4 cumulative IPC: 4 (Simulation time: 10 hr 17 min 36 sec)
Heartbeat CPU 7 instructions: 630000014 cycles: 157512082 heartbeat IPC: 4 cumulative IPC: 4 (Simulation time: 10 hr 17 min 36 sec)
Heartbeat CPU 2 instructions: 630000010 cycles: 157514637 heartbeat IPC: 4 cumulative IPC: 4 (Simulation time: 10 hr 17 min 37 sec)
*** Reached end of trace: (2, "traces/ocean_8t/ocean2.champsimtrace")
*** Reached end of trace: (5, "traces/ocean_8t/ocean5.champsimtrace")
*** Reached end of trace: (4, "traces/ocean_8t/ocean4.champsimtrace")
*** Reached end of trace: (6, "traces/ocean_8t/ocean6.champsimtrace")
*** Reached end of trace: (3, "traces/ocean_8t/ocean3.champsimtrace")
*** Reached end of trace: (7, "traces/ocean_8t/ocean7.champsimtrace")
Heartbeat CPU 3 instructions: 640000022 cycles: 160011678 heartbeat IPC: 4 cumulative IPC: 4 (Simulation time: 10 hr 27 min 00 sec)
Heartbeat CPU 4 instructions: 640000012 cycles: 160011707 heartbeat IPC: 4 cumulative IPC: 4 (Simulation time: 10 hr 27 min 00 sec)
Heartbeat CPU 5 instructions: 640000009 cycles: 160011725 heartbeat IPC: 4 cumulative IPC: 4 (Simulation time: 10 hr 27 min 00 sec)
Heartbeat CPU 6 instructions: 640000007 cycles: 160011980 heartbeat IPC: 4 cumulative IPC: 4 (Simulation time: 10 hr 27 min 00 sec)
Heartbeat CPU 7 instructions: 640000016 cycles: 160012114 heartbeat IPC: 4 cumulative IPC: 4 (Simulation time: 10 hr 27 min 00 sec)
Heartbeat CPU 2 instructions: 640000011 cycles: 160014680 heartbeat IPC: 4 cumulative IPC: 4 (Simulation time: 10 hr 27 min 00 sec)
Heartbeat CPU 1 instructions: 260000027 cycles: 161494291 heartbeat IPC: 0.2342 cumulative IPC: 0.2556 (Simulation time: 10 hr 32 min 31 sec)
Heartbeat CPU 3 instructions: 650000022 cycles: 162511678 heartbeat IPC: 4 cumulative IPC: 4 (Simulation time: 10 hr 36 min 16 sec)
Heartbeat CPU 4 instructions: 650000012 cycles: 162511707 heartbeat IPC: 4 cumulative IPC: 4 (Simulation time: 10 hr 36 min 16 sec)
Heartbeat CPU 5 instructions: 650000009 cycles: 162511725 heartbeat IPC: 4 cumulative IPC: 4 (Simulation time: 10 hr 36 min 16 sec)
Heartbeat CPU 6 instructions: 650000007 cycles: 162511980 heartbeat IPC: 4 cumulative IPC: 4 (Simulation time: 10 hr 36 min 17 sec)
Heartbeat CPU 7 instructions: 650000016 cycles: 162512114 heartbeat IPC: 4 cumulative IPC: 4 (Simulation time: 10 hr 36 min 17 sec)
Heartbeat CPU 2 instructions: 650000011 cycles: 162514680 heartbeat IPC: 4 cumulative IPC: 4 (Simulation time: 10 hr 36 min 17 sec)
Heartbeat CPU 3 instructions: 660000022 cycles: 165011678 heartbeat IPC: 4 cumulative IPC: 4 (Simulation time: 10 hr 45 min 15 sec)
Heartbeat CPU 4 instructions: 660000012 cycles: 165011707 heartbeat IPC: 4 cumulative IPC: 4 (Simulation time: 10 hr 45 min 15 sec)
Heartbeat CPU 5 instructions: 660000009 cycles: 165011725 heartbeat IPC: 4 cumulative IPC: 4 (Simulation time: 10 hr 45 min 15 sec)
Heartbeat CPU 6 instructions: 660000007 cycles: 165011980 heartbeat IPC: 4 cumulative IPC: 4 (Simulation time: 10 hr 45 min 15 sec)
Heartbeat CPU 7 instructions: 660000016 cycles: 165012114 heartbeat IPC: 4 cumulative IPC: 4 (Simulation time: 10 hr 45 min 15 sec)
Heartbeat CPU 2 instructions: 660000011 cycles: 165014680 heartbeat IPC: 4 cumulative IPC: 4 (Simulation time: 10 hr 45 min 15 sec)
Heartbeat CPU 3 instructions: 670000022 cycles: 167511678 heartbeat IPC: 4 cumulative IPC: 4 (Simulation time: 10 hr 53 min 59 sec)
Heartbeat CPU 4 instructions: 670000012 cycles: 167511707 heartbeat IPC: 4 cumulative IPC: 4 (Simulation time: 10 hr 53 min 59 sec)
Heartbeat CPU 5 instructions: 670000009 cycles: 167511725 heartbeat IPC: 4 cumulative IPC: 4 (Simulation time: 10 hr 53 min 59 sec)
Heartbeat CPU 6 instructions: 670000007 cycles: 167511980 heartbeat IPC: 4 cumulative IPC: 4 (Simulation time: 10 hr 53 min 59 sec)
Heartbeat CPU 7 instructions: 670000016 cycles: 167512114 heartbeat IPC: 4 cumulative IPC: 4 (Simulation time: 10 hr 53 min 59 sec)
Heartbeat CPU 2 instructions: 670000011 cycles: 167514680 heartbeat IPC: 4 cumulative IPC: 4 (Simulation time: 10 hr 54 min 00 sec)
*** Reached end of trace: (2, "traces/ocean_8t/ocean2.champsimtrace")
*** Reached end of trace: (5, "traces/ocean_8t/ocean5.champsimtrace")
*** Reached end of trace: (4, "traces/ocean_8t/ocean4.champsimtrace")
*** Reached end of trace: (6, "traces/ocean_8t/ocean6.champsimtrace")
Heartbeat CPU 3 instructions: 680000022 cycles: 170011678 heartbeat IPC: 4 cumulative IPC: 4 (Simulation time: 11 hr 02 min 43 sec)
Heartbeat CPU 4 instructions: 680000013 cycles: 170011740 heartbeat IPC: 4 cumulative IPC: 4 (Simulation time: 11 hr 02 min 43 sec)
Heartbeat CPU 5 instructions: 680000009 cycles: 170011746 heartbeat IPC: 4 cumulative IPC: 4 (Simulation time: 11 hr 02 min 43 sec)
Heartbeat CPU 6 instructions: 680000008 cycles: 170012013 heartbeat IPC: 4 cumulative IPC: 4 (Simulation time: 11 hr 02 min 43 sec)
Heartbeat CPU 7 instructions: 680000016 cycles: 170012114 heartbeat IPC: 4 cumulative IPC: 4 (Simulation time: 11 hr 02 min 43 sec)
Heartbeat CPU 2 instructions: 680000012 cycles: 170014723 heartbeat IPC: 4 cumulative IPC: 4 (Simulation time: 11 hr 02 min 44 sec)
*** Reached end of trace: (3, "traces/ocean_8t/ocean3.champsimtrace")
*** Reached end of trace: (7, "traces/ocean_8t/ocean7.champsimtrace")
Heartbeat CPU 3 instructions: 690000025 cycles: 172511693 heartbeat IPC: 4 cumulative IPC: 4 (Simulation time: 11 hr 11 min 29 sec)
Heartbeat CPU 4 instructions: 690000013 cycles: 172511740 heartbeat IPC: 4 cumulative IPC: 4 (Simulation time: 11 hr 11 min 29 sec)
Heartbeat CPU 5 instructions: 690000009 cycles: 172511746 heartbeat IPC: 4 cumulative IPC: 4 (Simulation time: 11 hr 11 min 29 sec)
Heartbeat CPU 6 instructions: 690000008 cycles: 172512013 heartbeat IPC: 4 cumulative IPC: 4 (Simulation time: 11 hr 11 min 29 sec)
Heartbeat CPU 7 instructions: 690000018 cycles: 172512146 heartbeat IPC: 4 cumulative IPC: 4 (Simulation time: 11 hr 11 min 29 sec)
Heartbeat CPU 2 instructions: 690000012 cycles: 172514723 heartbeat IPC: 4 cumulative IPC: 4 (Simulation time: 11 hr 11 min 30 sec)
Heartbeat CPU 3 instructions: 700000025 cycles: 175011693 heartbeat IPC: 4 cumulative IPC: 4 (Simulation time: 11 hr 20 min 19 sec)
Heartbeat CPU 4 instructions: 700000013 cycles: 175011740 heartbeat IPC: 4 cumulative IPC: 4 (Simulation time: 11 hr 20 min 19 sec)
Heartbeat CPU 5 instructions: 700000009 cycles: 175011746 heartbeat IPC: 4 cumulative IPC: 4 (Simulation time: 11 hr 20 min 19 sec)
Heartbeat CPU 6 instructions: 700000008 cycles: 175012013 heartbeat IPC: 4 cumulative IPC: 4 (Simulation time: 11 hr 20 min 19 sec)
Heartbeat CPU 7 instructions: 700000018 cycles: 175012146 heartbeat IPC: 4 cumulative IPC: 4 (Simulation time: 11 hr 20 min 19 sec)
Heartbeat CPU 2 instructions: 700000012 cycles: 175014723 heartbeat IPC: 4 cumulative IPC: 4 (Simulation time: 11 hr 20 min 20 sec)
Heartbeat CPU 3 instructions: 710000025 cycles: 177511693 heartbeat IPC: 4 cumulative IPC: 4 (Simulation time: 11 hr 28 min 57 sec)
Heartbeat CPU 4 instructions: 710000013 cycles: 177511740 heartbeat IPC: 4 cumulative IPC: 4 (Simulation time: 11 hr 28 min 57 sec)
Heartbeat CPU 5 instructions: 710000009 cycles: 177511746 heartbeat IPC: 4 cumulative IPC: 4 (Simulation time: 11 hr 28 min 57 sec)
Heartbeat CPU 6 instructions: 710000008 cycles: 177512013 heartbeat IPC: 4 cumulative IPC: 4 (Simulation time: 11 hr 28 min 57 sec)
Heartbeat CPU 7 instructions: 710000018 cycles: 177512146 heartbeat IPC: 4 cumulative IPC: 4 (Simulation time: 11 hr 28 min 57 sec)
Heartbeat CPU 2 instructions: 710000012 cycles: 177514723 heartbeat IPC: 4 cumulative IPC: 4 (Simulation time: 11 hr 28 min 58 sec)
Heartbeat CPU 3 instructions: 720000025 cycles: 180011693 heartbeat IPC: 4 cumulative IPC: 4 (Simulation time: 11 hr 37 min 33 sec)
Heartbeat CPU 4 instructions: 720000013 cycles: 180011740 heartbeat IPC: 4 cumulative IPC: 4 (Simulation time: 11 hr 37 min 33 sec)
Heartbeat CPU 5 instructions: 720000009 cycles: 180011746 heartbeat IPC: 4 cumulative IPC: 4 (Simulation time: 11 hr 37 min 33 sec)
Heartbeat CPU 6 instructions: 720000008 cycles: 180012013 heartbeat IPC: 4 cumulative IPC: 4 (Simulation time: 11 hr 37 min 33 sec)
Heartbeat CPU 7 instructions: 720000018 cycles: 180012146 heartbeat IPC: 4 cumulative IPC: 4 (Simulation time: 11 hr 37 min 33 sec)
Heartbeat CPU 2 instructions: 720000012 cycles: 180014723 heartbeat IPC: 4 cumulative IPC: 4 (Simulation time: 11 hr 37 min 34 sec)
*** Reached end of trace: (2, "traces/ocean_8t/ocean2.champsimtrace")
*** Reached end of trace: (5, "traces/ocean_8t/ocean5.champsimtrace")
*** Reached end of trace: (4, "traces/ocean_8t/ocean4.champsimtrace")
*** Reached end of trace: (6, "traces/ocean_8t/ocean6.champsimtrace")
*** Reached end of trace: (3, "traces/ocean_8t/ocean3.champsimtrace")
*** Reached end of trace: (7, "traces/ocean_8t/ocean7.champsimtrace")
Heartbeat CPU 3 instructions: 730000028 cycles: 182511708 heartbeat IPC: 4 cumulative IPC: 4 (Simulation time: 11 hr 46 min 17 sec)
Heartbeat CPU 5 instructions: 730000009 cycles: 182511767 heartbeat IPC: 4 cumulative IPC: 4 (Simulation time: 11 hr 46 min 17 sec)
Heartbeat CPU 4 instructions: 730000014 cycles: 182511773 heartbeat IPC: 4 cumulative IPC: 4 (Simulation time: 11 hr 46 min 17 sec)
Heartbeat CPU 6 instructions: 730000009 cycles: 182512046 heartbeat IPC: 4 cumulative IPC: 4 (Simulation time: 11 hr 46 min 17 sec)
Heartbeat CPU 7 instructions: 730000020 cycles: 182512178 heartbeat IPC: 4 cumulative IPC: 4 (Simulation time: 11 hr 46 min 17 sec)
Heartbeat CPU 2 instructions: 730000013 cycles: 182514766 heartbeat IPC: 4 cumulative IPC: 4 (Simulation time: 11 hr 46 min 17 sec)
Heartbeat CPU 3 instructions: 740000028 cycles: 185011708 heartbeat IPC: 4 cumulative IPC: 4 (Simulation time: 11 hr 54 min 58 sec)
Heartbeat CPU 5 instructions: 740000009 cycles: 185011767 heartbeat IPC: 4 cumulative IPC: 4 (Simulation time: 11 hr 54 min 58 sec)
Heartbeat CPU 4 instructions: 740000014 cycles: 185011773 heartbeat IPC: 4 cumulative IPC: 4 (Simulation time: 11 hr 54 min 58 sec)
Heartbeat CPU 6 instructions: 740000009 cycles: 185012046 heartbeat IPC: 4 cumulative IPC: 4 (Simulation time: 11 hr 54 min 58 sec)
Heartbeat CPU 7 instructions: 740000020 cycles: 185012178 heartbeat IPC: 4 cumulative IPC: 4 (Simulation time: 11 hr 54 min 58 sec)
Heartbeat CPU 2 instructions: 740000013 cycles: 185014766 heartbeat IPC: 4 cumulative IPC: 4 (Simulation time: 11 hr 54 min 59 sec)
Heartbeat CPU 3 instructions: 750000028 cycles: 187511708 heartbeat IPC: 4 cumulative IPC: 4 (Simulation time: 12 hr 03 min 37 sec)
Heartbeat CPU 5 instructions: 750000009 cycles: 187511767 heartbeat IPC: 4 cumulative IPC: 4 (Simulation time: 12 hr 03 min 37 sec)
Heartbeat CPU 4 instructions: 750000014 cycles: 187511773 heartbeat IPC: 4 cumulative IPC: 4 (Simulation time: 12 hr 03 min 37 sec)
Heartbeat CPU 6 instructions: 750000009 cycles: 187512046 heartbeat IPC: 4 cumulative IPC: 4 (Simulation time: 12 hr 03 min 37 sec)
Heartbeat CPU 7 instructions: 750000020 cycles: 187512178 heartbeat IPC: 4 cumulative IPC: 4 (Simulation time: 12 hr 03 min 37 sec)
Heartbeat CPU 2 instructions: 750000013 cycles: 187514766 heartbeat IPC: 4 cumulative IPC: 4 (Simulation time: 12 hr 03 min 37 sec)
Heartbeat CPU 3 instructions: 760000028 cycles: 190011708 heartbeat IPC: 4 cumulative IPC: 4 (Simulation time: 12 hr 12 min 18 sec)
Heartbeat CPU 5 instructions: 760000009 cycles: 190011767 heartbeat IPC: 4 cumulative IPC: 4 (Simulation time: 12 hr 12 min 18 sec)
Heartbeat CPU 4 instructions: 760000014 cycles: 190011773 heartbeat IPC: 4 cumulative IPC: 4 (Simulation time: 12 hr 12 min 18 sec)
Heartbeat CPU 6 instructions: 760000009 cycles: 190012046 heartbeat IPC: 4 cumulative IPC: 4 (Simulation time: 12 hr 12 min 18 sec)
Heartbeat CPU 7 instructions: 760000020 cycles: 190012178 heartbeat IPC: 4 cumulative IPC: 4 (Simulation time: 12 hr 12 min 18 sec)
Heartbeat CPU 2 instructions: 760000013 cycles: 190014766 heartbeat IPC: 4 cumulative IPC: 4 (Simulation time: 12 hr 12 min 18 sec)
*** Reached end of trace: (2, "traces/ocean_8t/ocean2.champsimtrace")
*** Reached end of trace: (5, "traces/ocean_8t/ocean5.champsimtrace")
*** Reached end of trace: (4, "traces/ocean_8t/ocean4.champsimtrace")
*** Reached end of trace: (6, "traces/ocean_8t/ocean6.champsimtrace")
Heartbeat CPU 3 instructions: 770000028 cycles: 192511708 heartbeat IPC: 4 cumulative IPC: 4 (Simulation time: 12 hr 21 min 16 sec)
Heartbeat CPU 5 instructions: 770000009 cycles: 192511788 heartbeat IPC: 4 cumulative IPC: 4 (Simulation time: 12 hr 21 min 16 sec)
Heartbeat CPU 4 instructions: 770000015 cycles: 192511806 heartbeat IPC: 4 cumulative IPC: 4 (Simulation time: 12 hr 21 min 16 sec)
Heartbeat CPU 6 instructions: 770000010 cycles: 192512079 heartbeat IPC: 4 cumulative IPC: 4 (Simulation time: 12 hr 21 min 16 sec)
Heartbeat CPU 7 instructions: 770000020 cycles: 192512178 heartbeat IPC: 4 cumulative IPC: 4 (Simulation time: 12 hr 21 min 16 sec)
Heartbeat CPU 2 instructions: 770000014 cycles: 192514809 heartbeat IPC: 4 cumulative IPC: 4 (Simulation time: 12 hr 21 min 17 sec)
*** Reached end of trace: (3, "traces/ocean_8t/ocean3.champsimtrace")
*** Reached end of trace: (7, "traces/ocean_8t/ocean7.champsimtrace")
Heartbeat CPU 3 instructions: 780000031 cycles: 195011723 heartbeat IPC: 4 cumulative IPC: 4 (Simulation time: 12 hr 30 min 00 sec)
Heartbeat CPU 5 instructions: 780000009 cycles: 195011788 heartbeat IPC: 4 cumulative IPC: 4 (Simulation time: 12 hr 30 min 00 sec)
Heartbeat CPU 4 instructions: 780000015 cycles: 195011806 heartbeat IPC: 4 cumulative IPC: 4 (Simulation time: 12 hr 30 min 00 sec)
Heartbeat CPU 6 instructions: 780000010 cycles: 195012079 heartbeat IPC: 4 cumulative IPC: 4 (Simulation time: 12 hr 30 min 00 sec)
Heartbeat CPU 7 instructions: 780000022 cycles: 195012210 heartbeat IPC: 4 cumulative IPC: 4 (Simulation time: 12 hr 30 min 00 sec)
Heartbeat CPU 2 instructions: 780000014 cycles: 195014809 heartbeat IPC: 4 cumulative IPC: 4 (Simulation time: 12 hr 30 min 01 sec)
Heartbeat CPU 3 instructions: 790000031 cycles: 197511723 heartbeat IPC: 4 cumulative IPC: 4 (Simulation time: 12 hr 38 min 46 sec)
Heartbeat CPU 5 instructions: 790000009 cycles: 197511788 heartbeat IPC: 4 cumulative IPC: 4 (Simulation time: 12 hr 38 min 46 sec)
Heartbeat CPU 4 instructions: 790000015 cycles: 197511806 heartbeat IPC: 4 cumulative IPC: 4 (Simulation time: 12 hr 38 min 46 sec)
Heartbeat CPU 6 instructions: 790000010 cycles: 197512079 heartbeat IPC: 4 cumulative IPC: 4 (Simulation time: 12 hr 38 min 46 sec)
Heartbeat CPU 7 instructions: 790000022 cycles: 197512210 heartbeat IPC: 4 cumulative IPC: 4 (Simulation time: 12 hr 38 min 46 sec)
Heartbeat CPU 2 instructions: 790000014 cycles: 197514809 heartbeat IPC: 4 cumulative IPC: 4 (Simulation time: 12 hr 38 min 46 sec)
Heartbeat CPU 3 instructions: 800000031 cycles: 200011723 heartbeat IPC: 4 cumulative IPC: 4 (Simulation time: 12 hr 47 min 27 sec)
Heartbeat CPU 5 instructions: 800000009 cycles: 200011788 heartbeat IPC: 4 cumulative IPC: 4 (Simulation time: 12 hr 47 min 27 sec)
Heartbeat CPU 4 instructions: 800000015 cycles: 200011806 heartbeat IPC: 4 cumulative IPC: 4 (Simulation time: 12 hr 47 min 27 sec)
Heartbeat CPU 6 instructions: 800000010 cycles: 200012079 heartbeat IPC: 4 cumulative IPC: 4 (Simulation time: 12 hr 47 min 27 sec)
Heartbeat CPU 7 instructions: 800000022 cycles: 200012210 heartbeat IPC: 4 cumulative IPC: 4 (Simulation time: 12 hr 47 min 27 sec)
Heartbeat CPU 2 instructions: 800000014 cycles: 200014809 heartbeat IPC: 4 cumulative IPC: 4 (Simulation time: 12 hr 47 min 27 sec)
Heartbeat CPU 1 instructions: 270000030 cycles: 202279935 heartbeat IPC: 0.2452 cumulative IPC: 0.2512 (Simulation time: 12 hr 55 min 32 sec)
Heartbeat CPU 3 instructions: 810000031 cycles: 202511723 heartbeat IPC: 4 cumulative IPC: 4 (Simulation time: 12 hr 56 min 25 sec)
Heartbeat CPU 5 instructions: 810000009 cycles: 202511788 heartbeat IPC: 4 cumulative IPC: 4 (Simulation time: 12 hr 56 min 25 sec)
Heartbeat CPU 4 instructions: 810000015 cycles: 202511806 heartbeat IPC: 4 cumulative IPC: 4 (Simulation time: 12 hr 56 min 25 sec)
Heartbeat CPU 6 instructions: 810000010 cycles: 202512079 heartbeat IPC: 4 cumulative IPC: 4 (Simulation time: 12 hr 56 min 25 sec)
Heartbeat CPU 7 instructions: 810000022 cycles: 202512210 heartbeat IPC: 4 cumulative IPC: 4 (Simulation time: 12 hr 56 min 25 sec)
Heartbeat CPU 2 instructions: 810000014 cycles: 202514809 heartbeat IPC: 4 cumulative IPC: 4 (Simulation time: 12 hr 56 min 26 sec)
[...]
cpu4->cpu4_ITLB RFO          ACCESS:          0 HIT:          0 MISS:          0 MSHR_MERGE:          0
cpu4->cpu4_ITLB PREFETCH     ACCESS:          0 HIT:          0 MISS:          0 MSHR_MERGE:          0
cpu4->cpu4_ITLB WRITE        ACCESS:          0 HIT:          0 MISS:          0 MSHR_MERGE:          0
cpu4->cpu4_ITLB TRANSLATION  ACCESS:          0 HIT:          0 MISS:          0 MSHR_MERGE:          0
cpu4->cpu4_ITLB PREFETCH REQUESTED:          0 ISSUED:          0 USEFUL:          0 USELESS:          0
cpu4->cpu4_ITLB AVERAGE MISS LATENCY: 3.859 cycles
cpu4_ITLB COHERENCE INVALIDATIONS:          0
cpu4_ITLB COHERENCE WRITE-HIT OTHER-SHARER EVENTS:          0
cpu4_DTLB COHERENCE INVALIDATIONS:          0
cpu4_DTLB COHERENCE WRITE-HIT OTHER-SHARER EVENTS:          0
cpu3->cpu3_STLB TOTAL        ACCESS:        816 HIT:        816 MISS:          0 MSHR_MERGE:          0
cpu3->cpu3_STLB LOAD         ACCESS:        816 HIT:        816 MISS:          0 MSHR_MERGE:          0
cpu3->cpu3_STLB RFO          ACCESS:          0 HIT:          0 MISS:          0 MSHR_MERGE:          0
cpu3->cpu3_STLB PREFETCH     ACCESS:          0 HIT:          0 MISS:          0 MSHR_MERGE:          0
cpu3->cpu3_STLB WRITE        ACCESS:          0 HIT:          0 MISS:          0 MSHR_MERGE:          0
cpu3->cpu3_STLB TRANSLATION  ACCESS:          0 HIT:          0 MISS:          0 MSHR_MERGE:          0
cpu3->cpu3_STLB PREFETCH REQUESTED:          0 ISSUED:          0 USEFUL:          0 USELESS:          0
cpu3->cpu3_STLB AVERAGE MISS LATENCY: - cycles
cpu3_STLB COHERENCE INVALIDATIONS:          0
cpu3_STLB COHERENCE WRITE-HIT OTHER-SHARER EVENTS:          0
cpu3->cpu3_L2C TOTAL        ACCESS:      80420 HIT:      80420 MISS:          0 MSHR_MERGE:          0
cpu3->cpu3_L2C LOAD         ACCESS:      80420 HIT:      80420 MISS:          0 MSHR_MERGE:          0
cpu3->cpu3_L2C RFO          ACCESS:          0 HIT:          0 MISS:          0 MSHR_MERGE:          0
cpu3->cpu3_L2C PREFETCH     ACCESS:          0 HIT:          0 MISS:          0 MSHR_MERGE:          0
cpu3->cpu3_L2C WRITE        ACCESS:          0 HIT:          0 MISS:          0 MSHR_MERGE:          0
cpu3->cpu3_L2C TRANSLATION  ACCESS:          0 HIT:          0 MISS:          0 MSHR_MERGE:          0
cpu3->cpu3_L2C PREFETCH REQUESTED:          0 ISSUED:          0 USEFUL:          0 USELESS:          0
cpu3->cpu3_L2C AVERAGE MISS LATENCY: - cycles
cpu3_L2C COHERENCE INVALIDATIONS:          0
cpu3_L2C COHERENCE WRITE-HIT OTHER-SHARER EVENTS:          0
cpu3->cpu3_L1I TOTAL        ACCESS:  366698914 HIT:  366578302 MISS:     120612 MSHR_MERGE:      40192
cpu3->cpu3_L1I LOAD         ACCESS:  366698914 HIT:  366578302 MISS:     120612 MSHR_MERGE:      40192
cpu3->cpu3_L1I RFO          ACCESS:          0 HIT:          0 MISS:          0 MSHR_MERGE:          0
cpu3->cpu3_L1I PREFETCH     ACCESS:          0 HIT:          0 MISS:          0 MSHR_MERGE:          0
cpu3->cpu3_L1I WRITE        ACCESS:          0 HIT:          0 MISS:          0 MSHR_MERGE:          0
cpu3->cpu3_L1I TRANSLATION  ACCESS:          0 HIT:          0 MISS:          0 MSHR_MERGE:          0
cpu3->cpu3_L1I PREFETCH REQUESTED:          0 ISSUED:          0 USEFUL:          0 USELESS:          0
cpu3->cpu3_L1I AVERAGE MISS LATENCY: 7 cycles
cpu3_L1I COHERENCE INVALIDATIONS:          0
cpu3_L1I COHERENCE WRITE-HIT OTHER-SHARER EVENTS:          0
cpu3_L1D COHERENCE INVALIDATIONS:          0
cpu3_L1D COHERENCE WRITE-HIT OTHER-SHARER EVENTS:          0
cpu3->cpu3_ITLB TOTAL        ACCESS:  290392567 HIT:  290391037 MISS:       1530 MSHR_MERGE:        714
cpu3->cpu3_ITLB LOAD         ACCESS:  290392567 HIT:  290391037 MISS:       1530 MSHR_MERGE:        714
cpu3->cpu3_ITLB RFO          ACCESS:          0 HIT:          0 MISS:          0 MSHR_MERGE:          0
cpu3->cpu3_ITLB PREFETCH     ACCESS:          0 HIT:          0 MISS:          0 MSHR_MERGE:          0
cpu3->cpu3_ITLB WRITE        ACCESS:          0 HIT:          0 MISS:          0 MSHR_MERGE:          0
cpu3->cpu3_ITLB TRANSLATION  ACCESS:          0 HIT:          0 MISS:          0 MSHR_MERGE:          0
cpu3->cpu3_ITLB PREFETCH REQUESTED:          0 ISSUED:          0 USEFUL:          0 USELESS:          0
cpu3->cpu3_ITLB AVERAGE MISS LATENCY: 4 cycles
cpu3_ITLB COHERENCE INVALIDATIONS:          0
cpu3_ITLB COHERENCE WRITE-HIT OTHER-SHARER EVENTS:          0
cpu3_DTLB COHERENCE INVALIDATIONS:          0
cpu3_DTLB COHERENCE WRITE-HIT OTHER-SHARER EVENTS:          0
cpu2->cpu2_STLB TOTAL        ACCESS:        828 HIT:        828 MISS:          0 MSHR_MERGE:          0
cpu2->cpu2_STLB LOAD         ACCESS:        828 HIT:        828 MISS:          0 MSHR_MERGE:          0
cpu2->cpu2_STLB RFO          ACCESS:          0 HIT:          0 MISS:          0 MSHR_MERGE:          0
cpu2->cpu2_STLB PREFETCH     ACCESS:          0 HIT:          0 MISS:          0 MSHR_MERGE:          0
cpu2->cpu2_STLB WRITE        ACCESS:          0 HIT:          0 MISS:          0 MSHR_MERGE:          0
cpu2->cpu2_STLB TRANSLATION  ACCESS:          0 HIT:          0 MISS:          0 MSHR_MERGE:          0
cpu2->cpu2_STLB PREFETCH REQUESTED:          0 ISSUED:          0 USEFUL:          0 USELESS:          0
cpu2->cpu2_STLB AVERAGE MISS LATENCY: - cycles
cpu2_STLB COHERENCE INVALIDATIONS:          0
cpu2_STLB COHERENCE WRITE-HIT OTHER-SHARER EVENTS:          0
cpu2->cpu2_L2C TOTAL        ACCESS:      85547 HIT:      85547 MISS:          0 MSHR_MERGE:          0
cpu2->cpu2_L2C LOAD         ACCESS:      85547 HIT:      85547 MISS:          0 MSHR_MERGE:          0
cpu2->cpu2_L2C RFO          ACCESS:          0 HIT:          0 MISS:          0 MSHR_MERGE:          0
cpu2->cpu2_L2C PREFETCH     ACCESS:          0 HIT:          0 MISS:          0 MSHR_MERGE:          0
cpu2->cpu2_L2C WRITE        ACCESS:          0 HIT:          0 MISS:          0 MSHR_MERGE:          0
cpu2->cpu2_L2C TRANSLATION  ACCESS:          0 HIT:          0 MISS:          0 MSHR_MERGE:          0
cpu2->cpu2_L2C PREFETCH REQUESTED:          0 ISSUED:          0 USEFUL:          0 USELESS:          0
cpu2->cpu2_L2C AVERAGE MISS LATENCY: - cycles
cpu2_L2C COHERENCE INVALIDATIONS:          0
cpu2_L2C COHERENCE WRITE-HIT OTHER-SHARER EVENTS:          0
cpu2->cpu2_L1I TOTAL        ACCESS:  334988761 HIT:  334865908 MISS:     122853 MSHR_MERGE:      37306
cpu2->cpu2_L1I LOAD         ACCESS:  334988761 HIT:  334865908 MISS:     122853 MSHR_MERGE:      37306
cpu2->cpu2_L1I RFO          ACCESS:          0 HIT:          0 MISS:          0 MSHR_MERGE:          0
cpu2->cpu2_L1I PREFETCH     ACCESS:          0 HIT:          0 MISS:          0 MSHR_MERGE:          0
cpu2->cpu2_L1I WRITE        ACCESS:          0 HIT:          0 MISS:          0 MSHR_MERGE:          0
cpu2->cpu2_L1I TRANSLATION  ACCESS:          0 HIT:          0 MISS:          0 MSHR_MERGE:          0
cpu2->cpu2_L1I PREFETCH REQUESTED:          0 ISSUED:          0 USEFUL:          0 USELESS:          0
cpu2->cpu2_L1I AVERAGE MISS LATENCY: 7 cycles
cpu2_L1I COHERENCE INVALIDATIONS:          0
cpu2_L1I COHERENCE WRITE-HIT OTHER-SHARER EVENTS:          0
cpu2_L1D COHERENCE INVALIDATIONS:          0
cpu2_L1D COHERENCE WRITE-HIT OTHER-SHARER EVENTS:          0
cpu2->cpu2_ITLB TOTAL        ACCESS:  269432810 HIT:  269431412 MISS:       1398 MSHR_MERGE:        570
cpu2->cpu2_ITLB LOAD         ACCESS:  269432810 HIT:  269431412 MISS:       1398 MSHR_MERGE:        570
cpu2->cpu2_ITLB RFO          ACCESS:          0 HIT:          0 MISS:          0 MSHR_MERGE:          0
cpu2->cpu2_ITLB PREFETCH     ACCESS:          0 HIT:          0 MISS:          0 MSHR_MERGE:          0
cpu2->cpu2_ITLB WRITE        ACCESS:          0 HIT:          0 MISS:          0 MSHR_MERGE:          0
cpu2->cpu2_ITLB TRANSLATION  ACCESS:          0 HIT:          0 MISS:          0 MSHR_MERGE:          0
cpu2->cpu2_ITLB PREFETCH REQUESTED:          0 ISSUED:          0 USEFUL:          0 USELESS:          0
cpu2->cpu2_ITLB AVERAGE MISS LATENCY: 4 cycles
cpu2_ITLB COHERENCE INVALIDATIONS:          0
cpu2_ITLB COHERENCE WRITE-HIT OTHER-SHARER EVENTS:          0
cpu2_DTLB COHERENCE INVALIDATIONS:          0
cpu2_DTLB COHERENCE WRITE-HIT OTHER-SHARER EVENTS:          0
cpu1->cpu1_STLB TOTAL        ACCESS:     846640 HIT:     816468 MISS:      30172 MSHR_MERGE:          0
cpu1->cpu1_STLB LOAD         ACCESS:     846640 HIT:     816468 MISS:      30172 MSHR_MERGE:          0
cpu1->cpu1_STLB RFO          ACCESS:          0 HIT:          0 MISS:          0 MSHR_MERGE:          0
cpu1->cpu1_STLB PREFETCH     ACCESS:          0 HIT:          0 MISS:          0 MSHR_MERGE:          0
cpu1->cpu1_STLB WRITE        ACCESS:          0 HIT:          0 MISS:          0 MSHR_MERGE:          0
cpu1->cpu1_STLB TRANSLATION  ACCESS:          0 HIT:          0 MISS:          0 MSHR_MERGE:          0
cpu1->cpu1_STLB PREFETCH REQUESTED:          0 ISSUED:          0 USEFUL:          0 USELESS:          0
cpu1->cpu1_STLB AVERAGE MISS LATENCY: 522.8 cycles
cpu1_STLB COHERENCE INVALIDATIONS:          0
cpu1_STLB COHERENCE WRITE-HIT OTHER-SHARER EVENTS:          0
cpu1->cpu1_L2C TOTAL        ACCESS:   12209499 HIT:    4873385 MISS:    7336114 MSHR_MERGE:          0
cpu1->cpu1_L2C LOAD         ACCESS:   12162626 HIT:    4873385 MISS:    7289241 MSHR_MERGE:          0
cpu1->cpu1_L2C RFO          ACCESS:          0 HIT:          0 MISS:          0 MSHR_MERGE:          0
cpu1->cpu1_L2C PREFETCH     ACCESS:          0 HIT:          0 MISS:          0 MSHR_MERGE:          0
cpu1->cpu1_L2C WRITE        ACCESS:          0 HIT:          0 MISS:          0 MSHR_MERGE:          0
cpu1->cpu1_L2C TRANSLATION  ACCESS:      46873 HIT:          0 MISS:      46873 MSHR_MERGE:          0
cpu1->cpu1_L2C PREFETCH REQUESTED:          0 ISSUED:          0 USEFUL:          0 USELESS:          0
cpu1->cpu1_L2C AVERAGE MISS LATENCY: 233.6 cycles
cpu1_L2C COHERENCE INVALIDATIONS:          0
cpu1_L2C COHERENCE WRITE-HIT OTHER-SHARER EVENTS:          0
cpu1->cpu1_L1I TOTAL        ACCESS:   45014246 HIT:   31190883 MISS:   13823363 MSHR_MERGE:    1660737
cpu1->cpu1_L1I LOAD         ACCESS:   45014246 HIT:   31190883 MISS:   13823363 MSHR_MERGE:    1660737
cpu1->cpu1_L1I RFO          ACCESS:          0 HIT:          0 MISS:          0 MSHR_MERGE:          0
cpu1->cpu1_L1I PREFETCH     ACCESS:          0 HIT:          0 MISS:          0 MSHR_MERGE:          0
cpu1->cpu1_L1I WRITE        ACCESS:          0 HIT:          0 MISS:          0 MSHR_MERGE:          0
cpu1->cpu1_L1I TRANSLATION  ACCESS:          0 HIT:          0 MISS:          0 MSHR_MERGE:          0
cpu1->cpu1_L1I PREFETCH REQUESTED:          0 ISSUED:          0 USEFUL:          0 USELESS:          0
cpu1->cpu1_L1I AVERAGE MISS LATENCY: 147.3 cycles
cpu1_L1I COHERENCE INVALIDATIONS:          0
cpu1_L1I COHERENCE WRITE-HIT OTHER-SHARER EVENTS:          0
cpu1->cpu1_L1D TOTAL        ACCESS:      60355 HIT:      13482 MISS:      46873 MSHR_MERGE:          0
cpu1->cpu1_L1D LOAD         ACCESS:          0 HIT:          0 MISS:          0 MSHR_MERGE:          0
cpu1->cpu1_L1D RFO          ACCESS:          0 HIT:          0 MISS:          0 MSHR_MERGE:          0
cpu1->cpu1_L1D PREFETCH     ACCESS:          0 HIT:          0 MISS:          0 MSHR_MERGE:          0
cpu1->cpu1_L1D WRITE        ACCESS:          0 HIT:          0 MISS:          0 MSHR_MERGE:          0
cpu1->cpu1_L1D TRANSLATION  ACCESS:      60355 HIT:      13482 MISS:      46873 MSHR_MERGE:          0
cpu1->cpu1_L1D PREFETCH REQUESTED:          0 ISSUED:          0 USEFUL:          0 USELESS:          0
cpu1->cpu1_L1D AVERAGE MISS LATENCY: 329.1 cycles
cpu1_L1D COHERENCE INVALIDATIONS:          0
cpu1_L1D COHERENCE WRITE-HIT OTHER-SHARER EVENTS:          0
cpu1->cpu1_ITLB TOTAL        ACCESS:   44233644 HIT:   43349997 MISS:     883647 MSHR_MERGE:      37007
cpu1->cpu1_ITLB LOAD         ACCESS:   44233644 HIT:   43349997 MISS:     883647 MSHR_MERGE:      37007
cpu1->cpu1_ITLB RFO          ACCESS:          0 HIT:          0 MISS:          0 MSHR_MERGE:          0
cpu1->cpu1_ITLB PREFETCH     ACCESS:          0 HIT:          0 MISS:          0 MSHR_MERGE:          0
cpu1->cpu1_ITLB WRITE        ACCESS:          0 HIT:          0 MISS:          0 MSHR_MERGE:          0
cpu1->cpu1_ITLB TRANSLATION  ACCESS:          0 HIT:          0 MISS:          0 MSHR_MERGE:          0
cpu1->cpu1_ITLB PREFETCH REQUESTED:          0 ISSUED:          0 USEFUL:          0 USELESS:          0
cpu1->cpu1_ITLB AVERAGE MISS LATENCY: 22.67 cycles
cpu1_ITLB COHERENCE INVALIDATIONS:          0
cpu1_ITLB COHERENCE WRITE-HIT OTHER-SHARER EVENTS:          0
cpu1_DTLB COHERENCE INVALIDATIONS:          0
cpu1_DTLB COHERENCE WRITE-HIT OTHER-SHARER EVENTS:          0
cpu0->cpu0_STLB TOTAL        ACCESS:    4684684 HIT:    4537149 MISS:     147535 MSHR_MERGE:          0
cpu0->cpu0_STLB LOAD         ACCESS:    4684684 HIT:    4537149 MISS:     147535 MSHR_MERGE:          0
cpu0->cpu0_STLB RFO          ACCESS:          0 HIT:          0 MISS:          0 MSHR_MERGE:          0
cpu0->cpu0_STLB PREFETCH     ACCESS:          0 HIT:          0 MISS:          0 MSHR_MERGE:          0
cpu0->cpu0_STLB WRITE        ACCESS:          0 HIT:          0 MISS:          0 MSHR_MERGE:          0
cpu0->cpu0_STLB TRANSLATION  ACCESS:          0 HIT:          0 MISS:          0 MSHR_MERGE:          0
cpu0->cpu0_STLB PREFETCH REQUESTED:          0 ISSUED:          0 USEFUL:          0 USELESS:          0
cpu0->cpu0_STLB AVERAGE MISS LATENCY: 636.2 cycles
cpu0_STLB COHERENCE INVALIDATIONS:          0
cpu0_STLB COHERENCE WRITE-HIT OTHER-SHARER EVENTS:          0
cpu0->cpu0_L2C TOTAL        ACCESS:   32526565 HIT:   14801481 MISS:   17725084 MSHR_MERGE:          0
cpu0->cpu0_L2C LOAD         ACCESS:   21195693 HIT:    6688406 MISS:   14507287 MSHR_MERGE:          0
cpu0->cpu0_L2C RFO          ACCESS:    3488630 HIT:     504416 MISS:    2984214 MSHR_MERGE:          0
cpu0->cpu0_L2C PREFETCH     ACCESS:          0 HIT:          0 MISS:          0 MSHR_MERGE:          0
cpu0->cpu0_L2C WRITE        ACCESS:    7570130 HIT:    7569219 MISS:        911 MSHR_MERGE:          0
cpu0->cpu0_L2C TRANSLATION  ACCESS:     272112 HIT:      39440 MISS:     232672 MSHR_MERGE:          0
cpu0->cpu0_L2C PREFETCH REQUESTED:          0 ISSUED:          0 USEFUL:          0 USELESS:          0
cpu0->cpu0_L2C AVERAGE MISS LATENCY: 180.8 cycles
cpu0_L2C COHERENCE INVALIDATIONS:          0
cpu0_L2C COHERENCE WRITE-HIT OTHER-SHARER EVENTS:          0
cpu0->cpu0_L1I TOTAL        ACCESS:   31267901 HIT:   31255724 MISS:      12177 MSHR_MERGE:       5950
cpu0->cpu0_L1I LOAD         ACCESS:   31267901 HIT:   31255724 MISS:      12177 MSHR_MERGE:       5950
cpu0->cpu0_L1I RFO          ACCESS:          0 HIT:          0 MISS:          0 MSHR_MERGE:          0
cpu0->cpu0_L1I PREFETCH     ACCESS:          0 HIT:          0 MISS:          0 MSHR_MERGE:          0
cpu0->cpu0_L1I WRITE        ACCESS:          0 HIT:          0 MISS:          0 MSHR_MERGE:          0
cpu0->cpu0_L1I TRANSLATION  ACCESS:          0 HIT:          0 MISS:          0 MSHR_MERGE:          0
cpu0->cpu0_L1I PREFETCH REQUESTED:          0 ISSUED:          0 USEFUL:          0 USELESS:          0
cpu0->cpu0_L1I AVERAGE MISS LATENCY: 289 cycles
cpu0_L1I COHERENCE INVALIDATIONS:          0
cpu0_L1I COHERENCE WRITE-HIT OTHER-SHARER EVENTS:          0
cpu0->cpu0_L1D TOTAL        ACCESS:  102918360 HIT:   74402994 MISS:   28515366 MSHR_MERGE:    3563388
cpu0->cpu0_L1D LOAD         ACCESS:   44313565 HIT:   22325822 MISS:   21987743 MSHR_MERGE:     798014
cpu0->cpu0_L1D RFO          ACCESS:          0 HIT:          0 MISS:          0 MSHR_MERGE:          0
cpu0->cpu0_L1D PREFETCH     ACCESS:          0 HIT:          0 MISS:          0 MSHR_MERGE:          0
cpu0->cpu0_L1D WRITE        ACCESS:   58304578 HIT:   52054855 MISS:    6249723 MSHR_MERGE:    2759586
cpu0->cpu0_L1D TRANSLATION  ACCESS:     300217 HIT:      22317 MISS:     277900 MSHR_MERGE:       5788
cpu0->cpu0_L1D PREFETCH REQUESTED:          0 ISSUED:          0 USEFUL:          0 USELESS:          0
cpu0->cpu0_L1D AVERAGE MISS LATENCY: 136.1 cycles
cpu0_L1D COHERENCE INVALIDATIONS:          0
cpu0_L1D COHERENCE WRITE-HIT OTHER-SHARER EVENTS:          0
cpu0->cpu0_ITLB TOTAL        ACCESS:   30074220 HIT:   30073143 MISS:       1077 MSHR_MERGE:        728
cpu0->cpu0_ITLB LOAD         ACCESS:   30074220 HIT:   30073143 MISS:       1077 MSHR_MERGE:        728
cpu0->cpu0_ITLB RFO          ACCESS:          0 HIT:          0 MISS:          0 MSHR_MERGE:          0
cpu0->cpu0_ITLB PREFETCH     ACCESS:          0 HIT:          0 MISS:          0 MSHR_MERGE:          0
cpu0->cpu0_ITLB WRITE        ACCESS:          0 HIT:          0 MISS:          0 MSHR_MERGE:          0
cpu0->cpu0_ITLB TRANSLATION  ACCESS:          0 HIT:          0 MISS:          0 MSHR_MERGE:          0
cpu0->cpu0_ITLB PREFETCH REQUESTED:          0 ISSUED:          0 USEFUL:          0 USELESS:          0
cpu0->cpu0_ITLB AVERAGE MISS LATENCY: 505.4 cycles
cpu0_ITLB COHERENCE INVALIDATIONS:          0
cpu0_ITLB COHERENCE WRITE-HIT OTHER-SHARER EVENTS:          0
cpu0->cpu0_DTLB TOTAL        ACCESS:   99319828 HIT:   94431884 MISS:    4887944 MSHR_MERGE:     203609
cpu0->cpu0_DTLB LOAD         ACCESS:   99319828 HIT:   94431884 MISS:    4887944 MSHR_MERGE:     203609
cpu0->cpu0_DTLB RFO          ACCESS:          0 HIT:          0 MISS:          0 MSHR_MERGE:          0
cpu0->cpu0_DTLB PREFETCH     ACCESS:          0 HIT:          0 MISS:          0 MSHR_MERGE:          0
cpu0->cpu0_DTLB WRITE        ACCESS:          0 HIT:          0 MISS:          0 MSHR_MERGE:          0
cpu0->cpu0_DTLB TRANSLATION  ACCESS:          0 HIT:          0 MISS:          0 MSHR_MERGE:          0
cpu0->cpu0_DTLB PREFETCH REQUESTED:          0 ISSUED:          0 USEFUL:          0 USELESS:          0
cpu0->cpu0_DTLB AVERAGE MISS LATENCY: 24.03 cycles
cpu0_DTLB COHERENCE INVALIDATIONS:          0
cpu0_DTLB COHERENCE WRITE-HIT OTHER-SHARER EVENTS:          0
cpu0->LLC TOTAL        ACCESS:   24162672 HIT:   14649907 MISS:    9512765 MSHR_MERGE:         89
cpu0->LLC LOAD         ACCESS:   14507271 HIT:    7644788 MISS:    6862483 MSHR_MERGE:         66
cpu0->LLC RFO          ACCESS:    2984214 HIT:     621098 MISS:    2363116 MSHR_MERGE:         23
cpu0->LLC PREFETCH     ACCESS:          0 HIT:          0 MISS:          0 MSHR_MERGE:          0
cpu0->LLC WRITE        ACCESS:    6438515 HIT:    6379554 MISS:      58961 MSHR_MERGE:          0
cpu0->LLC TRANSLATION  ACCESS:     232672 HIT:       4467 MISS:     228205 MSHR_MERGE:          0
cpu0->LLC PREFETCH REQUESTED:          0 ISSUED:          0 USEFUL:          0 USELESS:          0
cpu0->LLC AVERAGE MISS LATENCY: 475.9 cycles
cpu1->LLC TOTAL        ACCESS:    7336114 HIT:    2169613 MISS:    5166501 MSHR_MERGE:         71
cpu1->LLC LOAD         ACCESS:    7289241 HIT:    2169610 MISS:    5119631 MSHR_MERGE:         71
cpu1->LLC RFO          ACCESS:          0 HIT:          0 MISS:          0 MSHR_MERGE:          0
cpu1->LLC PREFETCH     ACCESS:          0 HIT:          0 MISS:          0 MSHR_MERGE:          0
cpu1->LLC WRITE        ACCESS:          0 HIT:          0 MISS:          0 MSHR_MERGE:          0
cpu1->LLC TRANSLATION  ACCESS:      46873 HIT:          3 MISS:      46870 MSHR_MERGE:          0
cpu1->LLC PREFETCH REQUESTED:          0 ISSUED:          0 USEFUL:          0 USELESS:          0
cpu1->LLC AVERAGE MISS LATENCY: 876.3 cycles
LLC COHERENCE INVALIDATIONS:     563740
LLC COHERENCE WRITE-HIT OTHER-SHARER EVENTS:     563740

DRAM Statistics

Channel 0 RQ ROW_BUFFER_HIT:     333811
  ROW_BUFFER_MISS:   14267694
  AVG DBUS CONGESTED CYCLE: 6.749
Channel 0 WQ ROW_BUFFER_HIT:     412350
  ROW_BUFFER_MISS:    3613250
  FULL:          0
Channel 0 REFRESHES ISSUED:      48708

VMEM ALIASED FILLS (cross-CPU shared-page hits): 90963
