[VMEM] WARNING: physical memory size is smaller than virtual memory size.

*** ChampSim Multicore Out-of-Order Simulator ***
Warmup Instructions: 50000000
Simulation Instructions: 100000000
Number of CPUs: 8
Page size: 4096

Off-chip DRAM Size: 16 GiB Channels: 1 Width: 64-bit Data Rate: 3205 MT/s
Heartbeat CPU 4 instructions: 10000001 cycles: 2509180 heartbeat IPC: 3.985 cumulative IPC: 3.985 (Simulation time: 00 hr 10 min 29 sec)
Heartbeat CPU 5 instructions: 10000003 cycles: 2509276 heartbeat IPC: 3.985 cumulative IPC: 3.985 (Simulation time: 00 hr 10 min 29 sec)
Heartbeat CPU 3 instructions: 10000003 cycles: 2509399 heartbeat IPC: 3.985 cumulative IPC: 3.985 (Simulation time: 00 hr 10 min 29 sec)
Heartbeat CPU 6 instructions: 10000000 cycles: 2509599 heartbeat IPC: 3.985 cumulative IPC: 3.985 (Simulation time: 00 hr 10 min 29 sec)
Heartbeat CPU 7 instructions: 10000003 cycles: 2509742 heartbeat IPC: 3.984 cumulative IPC: 3.984 (Simulation time: 00 hr 10 min 29 sec)
Heartbeat CPU 2 instructions: 10000001 cycles: 2510814 heartbeat IPC: 3.983 cumulative IPC: 3.983 (Simulation time: 00 hr 10 min 29 sec)
Heartbeat CPU 1 instructions: 10000001 cycles: 4707420 heartbeat IPC: 2.124 cumulative IPC: 2.124 (Simulation time: 00 hr 19 min 39 sec)
Heartbeat CPU 4 instructions: 20000003 cycles: 5009537 heartbeat IPC: 3.999 cumulative IPC: 3.992 (Simulation time: 00 hr 20 min 58 sec)
Heartbeat CPU 5 instructions: 20000006 cycles: 5009614 heartbeat IPC: 3.999 cumulative IPC: 3.992 (Simulation time: 00 hr 20 min 58 sec)
Heartbeat CPU 3 instructions: 20000006 cycles: 5009622 heartbeat IPC: 4 cumulative IPC: 3.992 (Simulation time: 00 hr 20 min 58 sec)
Heartbeat CPU 6 instructions: 20000001 cycles: 5009817 heartbeat IPC: 4 cumulative IPC: 3.992 (Simulation time: 00 hr 20 min 58 sec)
Heartbeat CPU 7 instructions: 20000004 cycles: 5009962 heartbeat IPC: 4 cumulative IPC: 3.992 (Simulation time: 00 hr 20 min 58 sec)
Heartbeat CPU 2 instructions: 20000003 cycles: 5011656 heartbeat IPC: 3.999 cumulative IPC: 3.991 (Simulation time: 00 hr 20 min 58 sec)
Heartbeat CPU 4 instructions: 30000003 cycles: 7509537 heartbeat IPC: 4 cumulative IPC: 3.995 (Simulation time: 00 hr 31 min 42 sec)
Heartbeat CPU 5 instructions: 30000006 cycles: 7509614 heartbeat IPC: 4 cumulative IPC: 3.995 (Simulation time: 00 hr 31 min 42 sec)
Heartbeat CPU 3 instructions: 30000006 cycles: 7509622 heartbeat IPC: 4 cumulative IPC: 3.995 (Simulation time: 00 hr 31 min 42 sec)
Heartbeat CPU 6 instructions: 30000001 cycles: 7509817 heartbeat IPC: 4 cumulative IPC: 3.995 (Simulation time: 00 hr 31 min 42 sec)
Heartbeat CPU 7 instructions: 30000004 cycles: 7509962 heartbeat IPC: 4 cumulative IPC: 3.995 (Simulation time: 00 hr 31 min 42 sec)
Heartbeat CPU 2 instructions: 30000003 cycles: 7511656 heartbeat IPC: 4 cumulative IPC: 3.994 (Simulation time: 00 hr 31 min 43 sec)
Heartbeat CPU 1 instructions: 20000001 cycles: 9310790 heartbeat IPC: 2.172 cumulative IPC: 2.148 (Simulation time: 00 hr 39 min 28 sec)
Heartbeat CPU 4 instructions: 40000003 cycles: 10009537 heartbeat IPC: 4 cumulative IPC: 3.996 (Simulation time: 00 hr 42 min 28 sec)
Heartbeat CPU 5 instructions: 40000006 cycles: 10009614 heartbeat IPC: 4 cumulative IPC: 3.996 (Simulation time: 00 hr 42 min 28 sec)
Heartbeat CPU 3 instructions: 40000006 cycles: 10009622 heartbeat IPC: 4 cumulative IPC: 3.996 (Simulation time: 00 hr 42 min 28 sec)
Heartbeat CPU 6 instructions: 40000001 cycles: 10009817 heartbeat IPC: 4 cumulative IPC: 3.996 (Simulation time: 00 hr 42 min 28 sec)
Heartbeat CPU 7 instructions: 40000004 cycles: 10009962 heartbeat IPC: 4 cumulative IPC: 3.996 (Simulation time: 00 hr 42 min 28 sec)
Heartbeat CPU 2 instructions: 40000003 cycles: 10011656 heartbeat IPC: 4 cumulative IPC: 3.995 (Simulation time: 00 hr 42 min 28 sec)
*** Reached end of trace: (2, "traces/ocean_8t/ocean2.champsimtrace")
*** Reached end of trace: (5, "traces/ocean_8t/ocean5.champsimtrace")
*** Reached end of trace: (4, "traces/ocean_8t/ocean4.champsimtrace")
*** Reached end of trace: (6, "traces/ocean_8t/ocean6.champsimtrace")
*** Reached end of trace: (3, "traces/ocean_8t/ocean3.champsimtrace")
*** Reached end of trace: (7, "traces/ocean_8t/ocean7.champsimtrace")
Warmup finished CPU 4 instructions: 50000002 cycles: 12511542 cumulative IPC: 3.996 (Simulation time: 00 hr 53 min 13 sec)
Heartbeat CPU 4 instructions: 50000006 cycles: 12511543 heartbeat IPC: 3.997 cumulative IPC: 3.996 (Simulation time: 00 hr 53 min 13 sec)
Warmup finished CPU 5 instructions: 50000001 cycles: 12511615 cumulative IPC: 3.996 (Simulation time: 00 hr 53 min 13 sec)
Heartbeat CPU 5 instructions: 50000009 cycles: 12511617 heartbeat IPC: 3.997 cumulative IPC: 3.996 (Simulation time: 00 hr 53 min 13 sec)
Warmup finished CPU 3 instructions: 50000000 cycles: 12511623 cumulative IPC: 3.996 (Simulation time: 00 hr 53 min 13 sec)
Heartbeat CPU 3 instructions: 50000008 cycles: 12511625 heartbeat IPC: 3.997 cumulative IPC: 3.996 (Simulation time: 00 hr 53 min 13 sec)
Heartbeat CPU 6 instructions: 50000003 cycles: 12511821 heartbeat IPC: 3.997 cumulative IPC: 3.996 (Simulation time: 00 hr 53 min 13 sec)
Warmup finished CPU 6 instructions: 50000003 cycles: 12511821 cumulative IPC: 3.996 (Simulation time: 00 hr 53 min 13 sec)
Warmup finished CPU 7 instructions: 50000003 cycles: 12511970 cumulative IPC: 3.996 (Simulation time: 00 hr 53 min 13 sec)
Heartbeat CPU 7 instructions: 50000007 cycles: 12511971 heartbeat IPC: 3.997 cumulative IPC: 3.996 (Simulation time: 00 hr 53 min 13 sec)
Warmup finished CPU 2 instructions: 50000002 cycles: 12514464 cumulative IPC: 3.995 (Simulation time: 00 hr 53 min 14 sec)
Heartbeat CPU 2 instructions: 50000006 cycles: 12514465 heartbeat IPC: 3.996 cumulative IPC: 3.995 (Simulation time: 00 hr 53 min 14 sec)
Heartbeat CPU 1 instructions: 30000002 cycles: 14678025 heartbeat IPC: 1.863 cumulative IPC: 2.044 (Simulation time: 01 hr 02 min 26 sec)
Heartbeat CPU 4 instructions: 60000006 cycles: 15011543 heartbeat IPC: 4 cumulative IPC: 3.997 (Simulation time: 01 hr 03 min 49 sec)
Heartbeat CPU 5 instructions: 60000009 cycles: 15011617 heartbeat IPC: 4 cumulative IPC: 3.997 (Simulation time: 01 hr 03 min 49 sec)
Heartbeat CPU 3 instructions: 60000008 cycles: 15011625 heartbeat IPC: 4 cumulative IPC: 3.997 (Simulation time: 01 hr 03 min 49 sec)
Heartbeat CPU 6 instructions: 60000003 cycles: 15011821 heartbeat IPC: 4 cumulative IPC: 3.997 (Simulation time: 01 hr 03 min 49 sec)
Heartbeat CPU 7 instructions: 60000007 cycles: 15011971 heartbeat IPC: 4 cumulative IPC: 3.997 (Simulation time: 01 hr 03 min 49 sec)
Heartbeat CPU 2 instructions: 60000006 cycles: 15014465 heartbeat IPC: 4 cumulative IPC: 3.996 (Simulation time: 01 hr 03 min 50 sec)
Heartbeat CPU 4 instructions: 70000006 cycles: 17511543 heartbeat IPC: 4 cumulative IPC: 3.997 (Simulation time: 01 hr 14 min 23 sec)
Heartbeat CPU 5 instructions: 70000009 cycles: 17511617 heartbeat IPC: 4 cumulative IPC: 3.997 (Simulation time: 01 hr 14 min 23 sec)
Heartbeat CPU 3 instructions: 70000008 cycles: 17511625 heartbeat IPC: 4 cumulative IPC: 3.997 (Simulation time: 01 hr 14 min 23 sec)
Heartbeat CPU 6 instructions: 70000003 cycles: 17511821 heartbeat IPC: 4 cumulative IPC: 3.997 (Simulation time: 01 hr 14 min 23 sec)
Heartbeat CPU 7 instructions: 70000007 cycles: 17511971 heartbeat IPC: 4 cumulative IPC: 3.997 (Simulation time: 01 hr 14 min 23 sec)
Heartbeat CPU 2 instructions: 70000006 cycles: 17514465 heartbeat IPC: 4 cumulative IPC: 3.997 (Simulation time: 01 hr 14 min 24 sec)
Heartbeat CPU 1 instructions: 40000004 cycles: 18944764 heartbeat IPC: 2.344 cumulative IPC: 2.111 (Simulation time: 01 hr 20 min 20 sec)
Heartbeat CPU 4 instructions: 80000006 cycles: 20011543 heartbeat IPC: 4 cumulative IPC: 3.998 (Simulation time: 01 hr 25 min 05 sec)
Heartbeat CPU 5 instructions: 80000009 cycles: 20011617 heartbeat IPC: 4 cumulative IPC: 3.998 (Simulation time: 01 hr 25 min 05 sec)
Heartbeat CPU 3 instructions: 80000008 cycles: 20011625 heartbeat IPC: 4 cumulative IPC: 3.998 (Simulation time: 01 hr 25 min 05 sec)
Heartbeat CPU 6 instructions: 80000003 cycles: 20011821 heartbeat IPC: 4 cumulative IPC: 3.998 (Simulation time: 01 hr 25 min 05 sec)
Heartbeat CPU 7 instructions: 80000007 cycles: 20011971 heartbeat IPC: 4 cumulative IPC: 3.998 (Simulation time: 01 hr 25 min 05 sec)
Heartbeat CPU 2 instructions: 80000006 cycles: 20014465 heartbeat IPC: 4 cumulative IPC: 3.997 (Simulation time: 01 hr 25 min 06 sec)
Heartbeat CPU 0 instructions: 10000000 cycles: 20858515 heartbeat IPC: 0.4794 cumulative IPC: 0.4794 (Simulation time: 01 hr 28 min 39 sec)
*** Reached end of trace: (1, "traces/ocean_8t/ocean1.champsimtrace")
Heartbeat CPU 4 instructions: 90000006 cycles: 22511543 heartbeat IPC: 4 cumulative IPC: 3.998 (Simulation time: 01 hr 35 min 17 sec)
Heartbeat CPU 5 instructions: 90000009 cycles: 22511617 heartbeat IPC: 4 cumulative IPC: 3.998 (Simulation time: 01 hr 35 min 17 sec)
Heartbeat CPU 3 instructions: 90000008 cycles: 22511625 heartbeat IPC: 4 cumulative IPC: 3.998 (Simulation time: 01 hr 35 min 17 sec)
Heartbeat CPU 6 instructions: 90000003 cycles: 22511821 heartbeat IPC: 4 cumulative IPC: 3.998 (Simulation time: 01 hr 35 min 17 sec)
Heartbeat CPU 7 instructions: 90000007 cycles: 22511971 heartbeat IPC: 4 cumulative IPC: 3.998 (Simulation time: 01 hr 35 min 17 sec)
Heartbeat CPU 2 instructions: 90000006 cycles: 22514465 heartbeat IPC: 4 cumulative IPC: 3.997 (Simulation time: 01 hr 35 min 18 sec)
*** Reached end of trace: (2, "traces/ocean_8t/ocean2.champsimtrace")
*** Reached end of trace: (5, "traces/ocean_8t/ocean5.champsimtrace")
*** Reached end of trace: (4, "traces/ocean_8t/ocean4.champsimtrace")
*** Reached end of trace: (6, "traces/ocean_8t/ocean6.champsimtrace")
*** Reached end of trace: (3, "traces/ocean_8t/ocean3.champsimtrace")
*** Reached end of trace: (7, "traces/ocean_8t/ocean7.champsimtrace")
Warmup finished CPU 1 instructions: 50000002 cycles: 22859630 cumulative IPC: 2.187 (Simulation time: 01 hr 36 min 46 sec)
Heartbeat CPU 1 instructions: 50000006 cycles: 22859631 heartbeat IPC: 2.554 cumulative IPC: 2.187 (Simulation time: 01 hr 36 min 46 sec)
Heartbeat CPU 4 instructions: 100000006 cycles: 25011543 heartbeat IPC: 4 cumulative IPC: 3.998 (Simulation time: 01 hr 45 min 59 sec)
Heartbeat CPU 5 instructions: 100000009 cycles: 25011617 heartbeat IPC: 4 cumulative IPC: 3.998 (Simulation time: 01 hr 45 min 59 sec)
Heartbeat CPU 3 instructions: 100000008 cycles: 25011625 heartbeat IPC: 4 cumulative IPC: 3.998 (Simulation time: 01 hr 45 min 59 sec)
Heartbeat CPU 6 instructions: 100000003 cycles: 25011821 heartbeat IPC: 4 cumulative IPC: 3.998 (Simulation time: 01 hr 46 min 00 sec)
Heartbeat CPU 7 instructions: 100000007 cycles: 25011971 heartbeat IPC: 4 cumulative IPC: 3.998 (Simulation time: 01 hr 46 min 00 sec)
Heartbeat CPU 2 instructions: 100000006 cycles: 25014465 heartbeat IPC: 4 cumulative IPC: 3.998 (Simulation time: 01 hr 46 min 00 sec)
Heartbeat CPU 1 instructions: 60000009 cycles: 26989481 heartbeat IPC: 2.421 cumulative IPC: 2.223 (Simulation time: 01 hr 54 min 10 sec)
Heartbeat CPU 4 instructions: 110000006 cycles: 27511543 heartbeat IPC: 4 cumulative IPC: 3.998 (Simulation time: 01 hr 56 min 16 sec)
Heartbeat CPU 5 instructions: 110000009 cycles: 27511617 heartbeat IPC: 4 cumulative IPC: 3.998 (Simulation time: 01 hr 56 min 16 sec)
Heartbeat CPU 3 instructions: 110000008 cycles: 27511625 heartbeat IPC: 4 cumulative IPC: 3.998 (Simulation time: 01 hr 56 min 16 sec)
Heartbeat CPU 6 instructions: 110000003 cycles: 27511821 heartbeat IPC: 4 cumulative IPC: 3.998 (Simulation time: 01 hr 56 min 16 sec)
Heartbeat CPU 7 instructions: 110000007 cycles: 27511971 heartbeat IPC: 4 cumulative IPC: 3.998 (Simulation time: 01 hr 56 min 16 sec)
Heartbeat CPU 2 instructions: 110000006 cycles: 27514465 heartbeat IPC: 4 cumulative IPC: 3.998 (Simulation time: 01 hr 56 min 16 sec)
Heartbeat CPU 4 instructions: 120000006 cycles: 30011543 heartbeat IPC: 4 cumulative IPC: 3.998 (Simulation time: 02 hr 06 min 13 sec)
Heartbeat CPU 5 instructions: 120000009 cycles: 30011617 heartbeat IPC: 4 cumulative IPC: 3.998 (Simulation time: 02 hr 06 min 13 sec)
Heartbeat CPU 3 instructions: 120000008 cycles: 30011625 heartbeat IPC: 4 cumulative IPC: 3.998 (Simulation time: 02 hr 06 min 13 sec)
Heartbeat CPU 6 instructions: 120000003 cycles: 30011821 heartbeat IPC: 4 cumulative IPC: 3.998 (Simulation time: 02 hr 06 min 13 sec)
Heartbeat CPU 7 instructions: 120000007 cycles: 30011971 heartbeat IPC: 4 cumulative IPC: 3.998 (Simulation time: 02 hr 06 min 13 sec)
Heartbeat CPU 2 instructions: 120000006 cycles: 30014465 heartbeat IPC: 4 cumulative IPC: 3.998 (Simulation time: 02 hr 06 min 13 sec)
Heartbeat CPU 1 instructions: 70000009 cycles: 31193315 heartbeat IPC: 2.379 cumulative IPC: 2.244 (Simulation time: 02 hr 10 min 57 sec)
Heartbeat CPU 4 instructions: 130000006 cycles: 32511543 heartbeat IPC: 4 cumulative IPC: 3.999 (Simulation time: 02 hr 16 min 09 sec)
Heartbeat CPU 5 instructions: 130000009 cycles: 32511617 heartbeat IPC: 4 cumulative IPC: 3.999 (Simulation time: 02 hr 16 min 09 sec)
Heartbeat CPU 3 instructions: 130000008 cycles: 32511625 heartbeat IPC: 4 cumulative IPC: 3.999 (Simulation time: 02 hr 16 min 09 sec)
Heartbeat CPU 6 instructions: 130000003 cycles: 32511821 heartbeat IPC: 4 cumulative IPC: 3.999 (Simulation time: 02 hr 16 min 09 sec)
Heartbeat CPU 7 instructions: 130000007 cycles: 32511971 heartbeat IPC: 4 cumulative IPC: 3.999 (Simulation time: 02 hr 16 min 09 sec)
Heartbeat CPU 2 instructions: 130000006 cycles: 32514465 heartbeat IPC: 4 cumulative IPC: 3.998 (Simulation time: 02 hr 16 min 10 sec)
*** Reached end of trace: (2, "traces/ocean_8t/ocean2.champsimtrace")
*** Reached end of trace: (5, "traces/ocean_8t/ocean5.champsimtrace")
*** Reached end of trace: (4, "traces/ocean_8t/ocean4.champsimtrace")
*** Reached end of trace: (6, "traces/ocean_8t/ocean6.champsimtrace")
*** Reached end of trace: (3, "traces/ocean_8t/ocean3.champsimtrace")
*** Reached end of trace: (7, "traces/ocean_8t/ocean7.champsimtrace")
Heartbeat CPU 4 instructions: 140000006 cycles: 35011543 heartbeat IPC: 4 cumulative IPC: 3.999 (Simulation time: 02 hr 26 min 00 sec)
Heartbeat CPU 5 instructions: 140000009 cycles: 35011617 heartbeat IPC: 4 cumulative IPC: 3.999 (Simulation time: 02 hr 26 min 00 sec)
Heartbeat CPU 3 instructions: 140000008 cycles: 35011625 heartbeat IPC: 4 cumulative IPC: 3.999 (Simulation time: 02 hr 26 min 00 sec)
Heartbeat CPU 6 instructions: 140000003 cycles: 35011821 heartbeat IPC: 4 cumulative IPC: 3.999 (Simulation time: 02 hr 26 min 00 sec)
Heartbeat CPU 7 instructions: 140000007 cycles: 35011971 heartbeat IPC: 4 cumulative IPC: 3.999 (Simulation time: 02 hr 26 min 00 sec)
Heartbeat CPU 2 instructions: 140000006 cycles: 35014465 heartbeat IPC: 4 cumulative IPC: 3.998 (Simulation time: 02 hr 26 min 01 sec)
Heartbeat CPU 1 instructions: 80000009 cycles: 36769091 heartbeat IPC: 1.793 cumulative IPC: 2.176 (Simulation time: 02 hr 33 min 08 sec)
Heartbeat CPU 4 instructions: 150000006 cycles: 37511543 heartbeat IPC: 4 cumulative IPC: 3.999 (Simulation time: 02 hr 36 min 06 sec)
Heartbeat CPU 5 instructions: 150000009 cycles: 37511617 heartbeat IPC: 4 cumulative IPC: 3.999 (Simulation time: 02 hr 36 min 06 sec)
Heartbeat CPU 3 instructions: 150000008 cycles: 37511625 heartbeat IPC: 4 cumulative IPC: 3.999 (Simulation time: 02 hr 36 min 06 sec)
Heartbeat CPU 6 instructions: 150000003 cycles: 37511821 heartbeat IPC: 4 cumulative IPC: 3.999 (Simulation time: 02 hr 36 min 06 sec)
Heartbeat CPU 7 instructions: 150000007 cycles: 37511971 heartbeat IPC: 4 cumulative IPC: 3.999 (Simulation time: 02 hr 36 min 06 sec)
Heartbeat CPU 2 instructions: 150000006 cycles: 37514465 heartbeat IPC: 4 cumulative IPC: 3.998 (Simulation time: 02 hr 36 min 06 sec)
Heartbeat CPU 4 instructions: 160000006 cycles: 40011543 heartbeat IPC: 4 cumulative IPC: 3.999 (Simulation time: 02 hr 46 min 12 sec)
Heartbeat CPU 5 instructions: 160000009 cycles: 40011617 heartbeat IPC: 4 cumulative IPC: 3.999 (Simulation time: 02 hr 46 min 12 sec)
Heartbeat CPU 3 instructions: 160000008 cycles: 40011625 heartbeat IPC: 4 cumulative IPC: 3.999 (Simulation time: 02 hr 46 min 12 sec)
Heartbeat CPU 6 instructions: 160000003 cycles: 40011821 heartbeat IPC: 4 cumulative IPC: 3.999 (Simulation time: 02 hr 46 min 12 sec)
Heartbeat CPU 7 instructions: 160000007 cycles: 40011971 heartbeat IPC: 4 cumulative IPC: 3.999 (Simulation time: 02 hr 46 min 12 sec)
Heartbeat CPU 2 instructions: 160000006 cycles: 40014465 heartbeat IPC: 4 cumulative IPC: 3.999 (Simulation time: 02 hr 46 min 12 sec)
Heartbeat CPU 1 instructions: 90000012 cycles: 40232746 heartbeat IPC: 2.887 cumulative IPC: 2.237 (Simulation time: 02 hr 47 min 05 sec)
*** Reached end of trace: (1, "traces/ocean_8t/ocean1.champsimtrace")
Heartbeat CPU 0 instructions: 20000001 cycles: 42156259 heartbeat IPC: 0.4695 cumulative IPC: 0.4744 (Simulation time: 02 hr 54 min 49 sec)
Heartbeat CPU 4 instructions: 170000006 cycles: 42511543 heartbeat IPC: 4 cumulative IPC: 3.999 (Simulation time: 02 hr 56 min 19 sec)
Heartbeat CPU 5 instructions: 170000009 cycles: 42511617 heartbeat IPC: 4 cumulative IPC: 3.999 (Simulation time: 02 hr 56 min 19 sec)
Heartbeat CPU 3 instructions: 170000008 cycles: 42511625 heartbeat IPC: 4 cumulative IPC: 3.999 (Simulation time: 02 hr 56 min 19 sec)
Heartbeat CPU 6 instructions: 170000003 cycles: 42511821 heartbeat IPC: 4 cumulative IPC: 3.999 (Simulation time: 02 hr 56 min 19 sec)
Heartbeat CPU 7 instructions: 170000007 cycles: 42511971 heartbeat IPC: 4 cumulative IPC: 3.999 (Simulation time: 02 hr 56 min 19 sec)
Heartbeat CPU 2 instructions: 170000006 cycles: 42514465 heartbeat IPC: 4 cumulative IPC: 3.999 (Simulation time: 02 hr 56 min 20 sec)
Heartbeat CPU 1 instructions: 100000013 cycles: 44362938 heartbeat IPC: 2.421 cumulative IPC: 2.254 (Simulation time: 03 hr 03 min 54 sec)
Heartbeat CPU 4 instructions: 180000006 cycles: 45011543 heartbeat IPC: 4 cumulative IPC: 3.999 (Simulation time: 03 hr 06 min 34 sec)
Heartbeat CPU 5 instructions: 180000009 cycles: 45011617 heartbeat IPC: 4 cumulative IPC: 3.999 (Simulation time: 03 hr 06 min 35 sec)
Heartbeat CPU 3 instructions: 180000008 cycles: 45011625 heartbeat IPC: 4 cumulative IPC: 3.999 (Simulation time: 03 hr 06 min 35 sec)
Heartbeat CPU 6 instructions: 180000003 cycles: 45011821 heartbeat IPC: 4 cumulative IPC: 3.999 (Simulation time: 03 hr 06 min 35 sec)
Heartbeat CPU 7 instructions: 180000007 cycles: 45011971 heartbeat IPC: 4 cumulative IPC: 3.999 (Simulation time: 03 hr 06 min 35 sec)
Heartbeat CPU 2 instructions: 180000006 cycles: 45014465 heartbeat IPC: 4 cumulative IPC: 3.999 (Simulation time: 03 hr 06 min 35 sec)
*** Reached end of trace: (2, "traces/ocean_8t/ocean2.champsimtrace")
*** Reached end of trace: (5, "traces/ocean_8t/ocean5.champsimtrace")
*** Reached end of trace: (4, "traces/ocean_8t/ocean4.champsimtrace")
*** Reached end of trace: (6, "traces/ocean_8t/ocean6.champsimtrace")
*** Reached end of trace: (3, "traces/ocean_8t/ocean3.champsimtrace")
*** Reached end of trace: (7, "traces/ocean_8t/ocean7.champsimtrace")
Heartbeat CPU 4 instructions: 190000006 cycles: 47511543 heartbeat IPC: 4 cumulative IPC: 3.999 (Simulation time: 03 hr 16 min 47 sec)
Heartbeat CPU 5 instructions: 190000009 cycles: 47511617 heartbeat IPC: 4 cumulative IPC: 3.999 (Simulation time: 03 hr 16 min 47 sec)
Heartbeat CPU 3 instructions: 190000008 cycles: 47511625 heartbeat IPC: 4 cumulative IPC: 3.999 (Simulation time: 03 hr 16 min 47 sec)
Heartbeat CPU 6 instructions: 190000003 cycles: 47511821 heartbeat IPC: 4 cumulative IPC: 3.999 (Simulation time: 03 hr 16 min 47 sec)
Heartbeat CPU 7 instructions: 190000007 cycles: 47511971 heartbeat IPC: 4 cumulative IPC: 3.999 (Simulation time: 03 hr 16 min 47 sec)
Heartbeat CPU 2 instructions: 190000006 cycles: 47514465 heartbeat IPC: 4 cumulative IPC: 3.999 (Simulation time: 03 hr 16 min 48 sec)
Heartbeat CPU 1 instructions: 110000014 cycles: 48499191 heartbeat IPC: 2.418 cumulative IPC: 2.268 (Simulation time: 03 hr 20 min 51 sec)
Heartbeat CPU 4 instructions: 200000006 cycles: 50011543 heartbeat IPC: 4 cumulative IPC: 3.999 (Simulation time: 03 hr 27 min 00 sec)
Heartbeat CPU 5 instructions: 200000009 cycles: 50011617 heartbeat IPC: 4 cumulative IPC: 3.999 (Simulation time: 03 hr 27 min 00 sec)
Heartbeat CPU 3 instructions: 200000008 cycles: 50011625 heartbeat IPC: 4 cumulative IPC: 3.999 (Simulation time: 03 hr 27 min 00 sec)
Heartbeat CPU 6 instructions: 200000003 cycles: 50011821 heartbeat IPC: 4 cumulative IPC: 3.999 (Simulation time: 03 hr 27 min 00 sec)
Heartbeat CPU 7 instructions: 200000007 cycles: 50011971 heartbeat IPC: 4 cumulative IPC: 3.999 (Simulation time: 03 hr 27 min 00 sec)
Heartbeat CPU 2 instructions: 200000006 cycles: 50014465 heartbeat IPC: 4 cumulative IPC: 3.999 (Simulation time: 03 hr 27 min 01 sec)
Heartbeat CPU 4 instructions: 210000006 cycles: 52511543 heartbeat IPC: 4 cumulative IPC: 3.999 (Simulation time: 03 hr 36 min 56 sec)
Heartbeat CPU 5 instructions: 210000009 cycles: 52511617 heartbeat IPC: 4 cumulative IPC: 3.999 (Simulation time: 03 hr 36 min 56 sec)
Heartbeat CPU 3 instructions: 210000008 cycles: 52511625 heartbeat IPC: 4 cumulative IPC: 3.999 (Simulation time: 03 hr 36 min 56 sec)
Heartbeat CPU 6 instructions: 210000003 cycles: 52511821 heartbeat IPC: 4 cumulative IPC: 3.999 (Simulation time: 03 hr 36 min 56 sec)
Heartbeat CPU 7 instructions: 210000007 cycles: 52511971 heartbeat IPC: 4 cumulative IPC: 3.999 (Simulation time: 03 hr 36 min 56 sec)
Heartbeat CPU 2 instructions: 210000006 cycles: 52514465 heartbeat IPC: 4 cumulative IPC: 3.999 (Simulation time: 03 hr 36 min 57 sec)
Heartbeat CPU 1 instructions: 120000014 cycles: 53453486 heartbeat IPC: 2.018 cumulative IPC: 2.245 (Simulation time: 03 hr 40 min 33 sec)
Heartbeat CPU 4 instructions: 220000006 cycles: 55011543 heartbeat IPC: 4 cumulative IPC: 3.999 (Simulation time: 03 hr 46 min 34 sec)
Heartbeat CPU 5 instructions: 220000009 cycles: 55011617 heartbeat IPC: 4 cumulative IPC: 3.999 (Simulation time: 03 hr 46 min 34 sec)
Heartbeat CPU 3 instructions: 220000008 cycles: 55011625 heartbeat IPC: 4 cumulative IPC: 3.999 (Simulation time: 03 hr 46 min 34 sec)
Heartbeat CPU 6 instructions: 220000003 cycles: 55011821 heartbeat IPC: 4 cumulative IPC: 3.999 (Simulation time: 03 hr 46 min 34 sec)
Heartbeat CPU 7 instructions: 220000007 cycles: 55011971 heartbeat IPC: 4 cumulative IPC: 3.999 (Simulation time: 03 hr 46 min 34 sec)
Heartbeat CPU 2 instructions: 220000006 cycles: 55014465 heartbeat IPC: 4 cumulative IPC: 3.999 (Simulation time: 03 hr 46 min 35 sec)
*** Reached end of trace: (2, "traces/ocean_8t/ocean2.champsimtrace")
*** Reached end of trace: (5, "traces/ocean_8t/ocean5.champsimtrace")
*** Reached end of trace: (4, "traces/ocean_8t/ocean4.champsimtrace")
*** Reached end of trace: (6, "traces/ocean_8t/ocean6.champsimtrace")
*** Reached end of trace: (3, "traces/ocean_8t/ocean3.champsimtrace")
*** Reached end of trace: (7, "traces/ocean_8t/ocean7.champsimtrace")
Heartbeat CPU 4 instructions: 230000006 cycles: 57511543 heartbeat IPC: 4 cumulative IPC: 3.999 (Simulation time: 03 hr 56 min 17 sec)
Heartbeat CPU 5 instructions: 230000009 cycles: 57511617 heartbeat IPC: 4 cumulative IPC: 3.999 (Simulation time: 03 hr 56 min 17 sec)
Heartbeat CPU 3 instructions: 230000008 cycles: 57511625 heartbeat IPC: 4 cumulative IPC: 3.999 (Simulation time: 03 hr 56 min 17 sec)
Heartbeat CPU 6 instructions: 230000003 cycles: 57511821 heartbeat IPC: 4 cumulative IPC: 3.999 (Simulation time: 03 hr 56 min 17 sec)
Heartbeat CPU 7 instructions: 230000007 cycles: 57511971 heartbeat IPC: 4 cumulative IPC: 3.999 (Simulation time: 03 hr 56 min 17 sec)
Heartbeat CPU 2 instructions: 230000006 cycles: 57514465 heartbeat IPC: 4 cumulative IPC: 3.999 (Simulation time: 03 hr 56 min 18 sec)
Heartbeat CPU 1 instructions: 130000015 cycles: 57966860 heartbeat IPC: 2.216 cumulative IPC: 2.243 (Simulation time: 03 hr 58 min 04 sec)
Heartbeat CPU 4 instructions: 240000006 cycles: 60011543 heartbeat IPC: 4 cumulative IPC: 3.999 (Simulation time: 04 hr 06 min 03 sec)
Heartbeat CPU 5 instructions: 240000009 cycles: 60011617 heartbeat IPC: 4 cumulative IPC: 3.999 (Simulation time: 04 hr 06 min 03 sec)
Heartbeat CPU 3 instructions: 240000008 cycles: 60011625 heartbeat IPC: 4 cumulative IPC: 3.999 (Simulation time: 04 hr 06 min 03 sec)
Heartbeat CPU 6 instructions: 240000003 cycles: 60011821 heartbeat IPC: 4 cumulative IPC: 3.999 (Simulation time: 04 hr 06 min 03 sec)
Heartbeat CPU 7 instructions: 240000007 cycles: 60011971 heartbeat IPC: 4 cumulative IPC: 3.999 (Simulation time: 04 hr 06 min 03 sec)
Heartbeat CPU 2 instructions: 240000006 cycles: 60014465 heartbeat IPC: 4 cumulative IPC: 3.999 (Simulation time: 04 hr 06 min 04 sec)
*** Reached end of trace: (1, "traces/ocean_8t/ocean1.champsimtrace")
Heartbeat CPU 1 instructions: 140000015 cycles: 61737107 heartbeat IPC: 2.652 cumulative IPC: 2.268 (Simulation time: 04 hr 12 min 43 sec)
Heartbeat CPU 0 instructions: 30000005 cycles: 62275000 heartbeat IPC: 0.497 cumulative IPC: 0.4817 (Simulation time: 04 hr 14 min 48 sec)
Heartbeat CPU 4 instructions: 250000006 cycles: 62511543 heartbeat IPC: 4 cumulative IPC: 3.999 (Simulation time: 04 hr 15 min 42 sec)
Heartbeat CPU 5 instructions: 250000009 cycles: 62511617 heartbeat IPC: 4 cumulative IPC: 3.999 (Simulation time: 04 hr 15 min 42 sec)
Heartbeat CPU 3 instructions: 250000008 cycles: 62511625 heartbeat IPC: 4 cumulative IPC: 3.999 (Simulation time: 04 hr 15 min 42 sec)
Heartbeat CPU 6 instructions: 250000003 cycles: 62511821 heartbeat IPC: 4 cumulative IPC: 3.999 (Simulation time: 04 hr 15 min 42 sec)
Heartbeat CPU 7 instructions: 250000007 cycles: 62511971 heartbeat IPC: 4 cumulative IPC: 3.999 (Simulation time: 04 hr 15 min 42 sec)
Heartbeat CPU 2 instructions: 250000006 cycles: 62514465 heartbeat IPC: 4 cumulative IPC: 3.999 (Simulation time: 04 hr 15 min 42 sec)
Heartbeat CPU 4 instructions: 260000006 cycles: 65011543 heartbeat IPC: 4 cumulative IPC: 3.999 (Simulation time: 04 hr 25 min 02 sec)
Heartbeat CPU 5 instructions: 260000009 cycles: 65011617 heartbeat IPC: 4 cumulative IPC: 3.999 (Simulation time: 04 hr 25 min 02 sec)
Heartbeat CPU 3 instructions: 260000008 cycles: 65011625 heartbeat IPC: 4 cumulative IPC: 3.999 (Simulation time: 04 hr 25 min 02 sec)
Heartbeat CPU 6 instructions: 260000003 cycles: 65011821 heartbeat IPC: 4 cumulative IPC: 3.999 (Simulation time: 04 hr 25 min 02 sec)
Heartbeat CPU 7 instructions: 260000007 cycles: 65011971 heartbeat IPC: 4 cumulative IPC: 3.999 (Simulation time: 04 hr 25 min 02 sec)
Heartbeat CPU 2 instructions: 260000006 cycles: 65014465 heartbeat IPC: 4 cumulative IPC: 3.999 (Simulation time: 04 hr 25 min 03 sec)
Heartbeat CPU 1 instructions: 150000015 cycles: 65966375 heartbeat IPC: 2.364 cumulative IPC: 2.274 (Simulation time: 04 hr 28 min 41 sec)
Heartbeat CPU 4 instructions: 270000006 cycles: 67511543 heartbeat IPC: 4 cumulative IPC: 3.999 (Simulation time: 04 hr 34 min 38 sec)
Heartbeat CPU 5 instructions: 270000009 cycles: 67511617 heartbeat IPC: 4 cumulative IPC: 3.999 (Simulation time: 04 hr 34 min 38 sec)
Heartbeat CPU 3 instructions: 270000008 cycles: 67511625 heartbeat IPC: 4 cumulative IPC: 3.999 (Simulation time: 04 hr 34 min 38 sec)
Heartbeat CPU 6 instructions: 270000003 cycles: 67511821 heartbeat IPC: 4 cumulative IPC: 3.999 (Simulation time: 04 hr 34 min 38 sec)
Heartbeat CPU 7 instructions: 270000007 cycles: 67511971 heartbeat IPC: 4 cumulative IPC: 3.999 (Simulation time: 04 hr 34 min 38 sec)
Heartbeat CPU 2 instructions: 270000006 cycles: 67514465 heartbeat IPC: 4 cumulative IPC: 3.999 (Simulation time: 04 hr 34 min 39 sec)
*** Reached end of trace: (2, "traces/ocean_8t/ocean2.champsimtrace")
*** Reached end of trace: (5, "traces/ocean_8t/ocean5.champsimtrace")
*** Reached end of trace: (4, "traces/ocean_8t/ocean4.champsimtrace")
*** Reached end of trace: (6, "traces/ocean_8t/ocean6.champsimtrace")
*** Reached end of trace: (3, "traces/ocean_8t/ocean3.champsimtrace")
*** Reached end of trace: (7, "traces/ocean_8t/ocean7.champsimtrace")
Heartbeat CPU 4 instructions: 280000006 cycles: 70011543 heartbeat IPC: 4 cumulative IPC: 3.999 (Simulation time: 04 hr 44 min 21 sec)
Heartbeat CPU 5 instructions: 280000009 cycles: 70011617 heartbeat IPC: 4 cumulative IPC: 3.999 (Simulation time: 04 hr 44 min 21 sec)
Heartbeat CPU 3 instructions: 280000008 cycles: 70011625 heartbeat IPC: 4 cumulative IPC: 3.999 (Simulation time: 04 hr 44 min 21 sec)
Heartbeat CPU 6 instructions: 280000003 cycles: 70011821 heartbeat IPC: 4 cumulative IPC: 3.999 (Simulation time: 04 hr 44 min 21 sec)
Heartbeat CPU 7 instructions: 280000007 cycles: 70011971 heartbeat IPC: 4 cumulative IPC: 3.999 (Simulation time: 04 hr 44 min 21 sec)
Heartbeat CPU 2 instructions: 280000006 cycles: 70014465 heartbeat IPC: 4 cumulative IPC: 3.999 (Simulation time: 04 hr 44 min 22 sec)
Heartbeat CPU 1 instructions: 160000018 cycles: 70128441 heartbeat IPC: 2.403 cumulative IPC: 2.282 (Simulation time: 04 hr 44 min 49 sec)
Heartbeat CPU 4 instructions: 290000006 cycles: 72511543 heartbeat IPC: 4 cumulative IPC: 3.999 (Simulation time: 04 hr 54 min 03 sec)
Heartbeat CPU 5 instructions: 290000009 cycles: 72511617 heartbeat IPC: 4 cumulative IPC: 3.999 (Simulation time: 04 hr 54 min 03 sec)
Heartbeat CPU 3 instructions: 290000008 cycles: 72511625 heartbeat IPC: 4 cumulative IPC: 3.999 (Simulation time: 04 hr 54 min 03 sec)
Heartbeat CPU 6 instructions: 290000003 cycles: 72511821 heartbeat IPC: 4 cumulative IPC: 3.999 (Simulation time: 04 hr 54 min 03 sec)
Heartbeat CPU 7 instructions: 290000007 cycles: 72511971 heartbeat IPC: 4 cumulative IPC: 3.999 (Simulation time: 04 hr 54 min 03 sec)
Heartbeat CPU 2 instructions: 290000006 cycles: 72514465 heartbeat IPC: 4 cumulative IPC: 3.999 (Simulation time: 04 hr 54 min 03 sec)
Heartbeat CPU 4 instructions: 300000006 cycles: 75011543 heartbeat IPC: 4 cumulative IPC: 3.999 (Simulation time: 05 hr 04 min 04 sec)
Heartbeat CPU 5 instructions: 300000009 cycles: 75011617 heartbeat IPC: 4 cumulative IPC: 3.999 (Simulation time: 05 hr 04 min 04 sec)
Heartbeat CPU 3 instructions: 300000008 cycles: 75011625 heartbeat IPC: 4 cumulative IPC: 3.999 (Simulation time: 05 hr 04 min 04 sec)
Heartbeat CPU 6 instructions: 300000003 cycles: 75011821 heartbeat IPC: 4 cumulative IPC: 3.999 (Simulation time: 05 hr 04 min 04 sec)
Heartbeat CPU 7 instructions: 300000007 cycles: 75011971 heartbeat IPC: 4 cumulative IPC: 3.999 (Simulation time: 05 hr 04 min 04 sec)
Heartbeat CPU 2 instructions: 300000006 cycles: 75014465 heartbeat IPC: 4 cumulative IPC: 3.999 (Simulation time: 05 hr 04 min 04 sec)
Heartbeat CPU 1 instructions: 170000021 cycles: 75721929 heartbeat IPC: 1.788 cumulative IPC: 2.245 (Simulation time: 05 hr 06 min 55 sec)
Heartbeat CPU 4 instructions: 310000006 cycles: 77511543 heartbeat IPC: 4 cumulative IPC: 3.999 (Simulation time: 05 hr 14 min 10 sec)
Heartbeat CPU 5 instructions: 310000009 cycles: 77511617 heartbeat IPC: 4 cumulative IPC: 3.999 (Simulation time: 05 hr 14 min 10 sec)
Heartbeat CPU 3 instructions: 310000008 cycles: 77511625 heartbeat IPC: 4 cumulative IPC: 3.999 (Simulation time: 05 hr 14 min 10 sec)
Heartbeat CPU 6 instructions: 310000003 cycles: 77511821 heartbeat IPC: 4 cumulative IPC: 3.999 (Simulation time: 05 hr 14 min 10 sec)
Heartbeat CPU 7 instructions: 310000007 cycles: 77511971 heartbeat IPC: 4 cumulative IPC: 3.999 (Simulation time: 05 hr 14 min 10 sec)
Heartbeat CPU 2 instructions: 310000006 cycles: 77514465 heartbeat IPC: 4 cumulative IPC: 3.999 (Simulation time: 05 hr 14 min 11 sec)
*** Reached end of trace: (2, "traces/ocean_8t/ocean2.champsimtrace")
*** Reached end of trace: (5, "traces/ocean_8t/ocean5.champsimtrace")
*** Reached end of trace: (4, "traces/ocean_8t/ocean4.champsimtrace")
*** Reached end of trace: (6, "traces/ocean_8t/ocean6.champsimtrace")
Heartbeat CPU 1 instructions: 180000021 cycles: 79297740 heartbeat IPC: 2.797 cumulative IPC: 2.27 (Simulation time: 05 hr 21 min 24 sec)
*** Reached end of trace: (3, "traces/ocean_8t/ocean3.champsimtrace")
*** Reached end of trace: (7, "traces/ocean_8t/ocean7.champsimtrace")
*** Reached end of trace: (1, "traces/ocean_8t/ocean1.champsimtrace")
Heartbeat CPU 4 instructions: 320000006 cycles: 80011543 heartbeat IPC: 4 cumulative IPC: 3.999 (Simulation time: 05 hr 24 min 20 sec)
Heartbeat CPU 5 instructions: 320000009 cycles: 80011617 heartbeat IPC: 4 cumulative IPC: 3.999 (Simulation time: 05 hr 24 min 20 sec)
Heartbeat CPU 3 instructions: 320000008 cycles: 80011625 heartbeat IPC: 4 cumulative IPC: 3.999 (Simulation time: 05 hr 24 min 20 sec)
Heartbeat CPU 6 instructions: 320000003 cycles: 80011821 heartbeat IPC: 4 cumulative IPC: 3.999 (Simulation time: 05 hr 24 min 20 sec)
Heartbeat CPU 7 instructions: 320000007 cycles: 80011971 heartbeat IPC: 4 cumulative IPC: 3.999 (Simulation time: 05 hr 24 min 20 sec)
Heartbeat CPU 2 instructions: 320000006 cycles: 80014465 heartbeat IPC: 4 cumulative IPC: 3.999 (Simulation time: 05 hr 24 min 20 sec)
Heartbeat CPU 4 instructions: 330000006 cycles: 82511543 heartbeat IPC: 4 cumulative IPC: 3.999 (Simulation time: 05 hr 34 min 20 sec)
Heartbeat CPU 5 instructions: 330000009 cycles: 82511617 heartbeat IPC: 4 cumulative IPC: 3.999 (Simulation time: 05 hr 34 min 20 sec)
Heartbeat CPU 3 instructions: 330000008 cycles: 82511625 heartbeat IPC: 4 cumulative IPC: 3.999 (Simulation time: 05 hr 34 min 20 sec)
Heartbeat CPU 6 instructions: 330000003 cycles: 82511821 heartbeat IPC: 4 cumulative IPC: 3.999 (Simulation time: 05 hr 34 min 20 sec)
Heartbeat CPU 7 instructions: 330000007 cycles: 82511971 heartbeat IPC: 4 cumulative IPC: 3.999 (Simulation time: 05 hr 34 min 20 sec)
Heartbeat CPU 2 instructions: 330000006 cycles: 82514465 heartbeat IPC: 4 cumulative IPC: 3.999 (Simulation time: 05 hr 34 min 21 sec)
Heartbeat CPU 1 instructions: 190000024 cycles: 83352937 heartbeat IPC: 2.466 cumulative IPC: 2.279 (Simulation time: 05 hr 37 min 45 sec)
Heartbeat CPU 0 instructions: 40000006 cycles: 84731412 heartbeat IPC: 0.4453 cumulative IPC: 0.4721 (Simulation time: 05 hr 42 min 53 sec)
Heartbeat CPU 4 instructions: 340000006 cycles: 85011543 heartbeat IPC: 4 cumulative IPC: 3.999 (Simulation time: 05 hr 43 min 54 sec)
Heartbeat CPU 5 instructions: 340000009 cycles: 85011617 heartbeat IPC: 4 cumulative IPC: 3.999 (Simulation time: 05 hr 43 min 54 sec)
Heartbeat CPU 3 instructions: 340000008 cycles: 85011625 heartbeat IPC: 4 cumulative IPC: 3.999 (Simulation time: 05 hr 43 min 54 sec)
Heartbeat CPU 6 instructions: 340000003 cycles: 85011821 heartbeat IPC: 4 cumulative IPC: 3.999 (Simulation time: 05 hr 43 min 54 sec)
Heartbeat CPU 7 instructions: 340000007 cycles: 85011971 heartbeat IPC: 4 cumulative IPC: 3.999 (Simulation time: 05 hr 43 min 54 sec)
Heartbeat CPU 2 instructions: 340000006 cycles: 85014465 heartbeat IPC: 4 cumulative IPC: 3.999 (Simulation time: 05 hr 43 min 54 sec)
Heartbeat CPU 1 instructions: 200000024 cycles: 87475959 heartbeat IPC: 2.425 cumulative IPC: 2.286 (Simulation time: 05 hr 52 min 47 sec)
Heartbeat CPU 4 instructions: 350000006 cycles: 87511543 heartbeat IPC: 4 cumulative IPC: 3.999 (Simulation time: 05 hr 52 min 56 sec)
Heartbeat CPU 5 instructions: 350000009 cycles: 87511617 heartbeat IPC: 4 cumulative IPC: 3.999 (Simulation time: 05 hr 52 min 56 sec)
Heartbeat CPU 3 instructions: 350000008 cycles: 87511625 heartbeat IPC: 4 cumulative IPC: 3.999 (Simulation time: 05 hr 52 min 56 sec)
Heartbeat CPU 6 instructions: 350000003 cycles: 87511821 heartbeat IPC: 4 cumulative IPC: 3.999 (Simulation time: 05 hr 52 min 56 sec)
Heartbeat CPU 7 instructions: 350000007 cycles: 87511971 heartbeat IPC: 4 cumulative IPC: 3.999 (Simulation time: 05 hr 52 min 56 sec)
Heartbeat CPU 2 instructions: 350000006 cycles: 87514465 heartbeat IPC: 4 cumulative IPC: 3.999 (Simulation time: 05 hr 52 min 56 sec)
Heartbeat CPU 4 instructions: 360000006 cycles: 90011543 heartbeat IPC: 4 cumulative IPC: 3.999 (Simulation time: 06 hr 02 min 00 sec)
Heartbeat CPU 5 instructions: 360000009 cycles: 90011617 heartbeat IPC: 4 cumulative IPC: 3.999 (Simulation time: 06 hr 02 min 00 sec)
Heartbeat CPU 3 instructions: 360000008 cycles: 90011625 heartbeat IPC: 4 cumulative IPC: 3.999 (Simulation time: 06 hr 02 min 00 sec)
Heartbeat CPU 6 instructions: 360000003 cycles: 90011821 heartbeat IPC: 4 cumulative IPC: 3.999 (Simulation time: 06 hr 02 min 00 sec)
Heartbeat CPU 7 instructions: 360000007 cycles: 90011971 heartbeat IPC: 4 cumulative IPC: 3.999 (Simulation time: 06 hr 02 min 00 sec)
Heartbeat CPU 2 instructions: 360000006 cycles: 90014465 heartbeat IPC: 4 cumulative IPC: 3.999 (Simulation time: 06 hr 02 min 01 sec)
*** Reached end of trace: (2, "traces/ocean_8t/ocean2.champsimtrace")
*** Reached end of trace: (5, "traces/ocean_8t/ocean5.champsimtrace")
*** Reached end of trace: (4, "traces/ocean_8t/ocean4.champsimtrace")
*** Reached end of trace: (6, "traces/ocean_8t/ocean6.champsimtrace")
*** Reached end of trace: (3, "traces/ocean_8t/ocean3.champsimtrace")
*** Reached end of trace: (7, "traces/ocean_8t/ocean7.champsimtrace")
Heartbeat CPU 1 instructions: 210000026 cycles: 92251042 heartbeat IPC: 2.094 cumulative IPC: 2.276 (Simulation time: 06 hr 10 min 24 sec)
Heartbeat CPU 4 instructions: 370000006 cycles: 92511543 heartbeat IPC: 4 cumulative IPC: 4 (Simulation time: 06 hr 11 min 23 sec)
Heartbeat CPU 5 instructions: 370000009 cycles: 92511617 heartbeat IPC: 4 cumulative IPC: 3.999 (Simulation time: 06 hr 11 min 23 sec)
Heartbeat CPU 3 instructions: 370000008 cycles: 92511625 heartbeat IPC: 4 cumulative IPC: 3.999 (Simulation time: 06 hr 11 min 23 sec)
Heartbeat CPU 6 instructions: 370000003 cycles: 92511821 heartbeat IPC: 4 cumulative IPC: 3.999 (Simulation time: 06 hr 11 min 23 sec)
Heartbeat CPU 7 instructions: 370000007 cycles: 92511971 heartbeat IPC: 4 cumulative IPC: 3.999 (Simulation time: 06 hr 11 min 23 sec)
Heartbeat CPU 2 instructions: 370000006 cycles: 92514465 heartbeat IPC: 4 cumulative IPC: 3.999 (Simulation time: 06 hr 11 min 24 sec)
Heartbeat CPU 4 instructions: 380000006 cycles: 95011543 heartbeat IPC: 4 cumulative IPC: 4 (Simulation time: 06 hr 20 min 50 sec)
Heartbeat CPU 5 instructions: 380000009 cycles: 95011617 heartbeat IPC: 4 cumulative IPC: 4 (Simulation time: 06 hr 20 min 50 sec)
Heartbeat CPU 3 instructions: 380000008 cycles: 95011625 heartbeat IPC: 4 cumulative IPC: 4 (Simulation time: 06 hr 20 min 50 sec)
Heartbeat CPU 6 instructions: 380000003 cycles: 95011821 heartbeat IPC: 4 cumulative IPC: 4 (Simulation time: 06 hr 20 min 50 sec)
Heartbeat CPU 7 instructions: 380000007 cycles: 95011971 heartbeat IPC: 4 cumulative IPC: 3.999 (Simulation time: 06 hr 20 min 50 sec)
Heartbeat CPU 2 instructions: 380000006 cycles: 95014465 heartbeat IPC: 4 cumulative IPC: 3.999 (Simulation time: 06 hr 20 min 51 sec)
Heartbeat CPU 1 instructions: 220000026 cycles: 96992397 heartbeat IPC: 2.109 cumulative IPC: 2.268 (Simulation time: 06 hr 28 min 24 sec)
Heartbeat CPU 4 instructions: 390000006 cycles: 97511543 heartbeat IPC: 4 cumulative IPC: 4 (Simulation time: 06 hr 30 min 22 sec)
Heartbeat CPU 5 instructions: 390000009 cycles: 97511617 heartbeat IPC: 4 cumulative IPC: 4 (Simulation time: 06 hr 30 min 22 sec)
Heartbeat CPU 3 instructions: 390000008 cycles: 97511625 heartbeat IPC: 4 cumulative IPC: 4 (Simulation time: 06 hr 30 min 22 sec)
Heartbeat CPU 6 instructions: 390000003 cycles: 97511821 heartbeat IPC: 4 cumulative IPC: 4 (Simulation time: 06 hr 30 min 22 sec)
Heartbeat CPU 7 instructions: 390000007 cycles: 97511971 heartbeat IPC: 4 cumulative IPC: 4 (Simulation time: 06 hr 30 min 22 sec)
Heartbeat CPU 2 instructions: 390000006 cycles: 97514465 heartbeat IPC: 4 cumulative IPC: 3.999 (Simulation time: 06 hr 30 min 23 sec)
*** Reached end of trace: (0, "traces/ocean_8t/ocean0.champsimtrace")
*** Reached end of trace: (1, "traces/ocean_8t/ocean1.champsimtrace")
Heartbeat CPU 4 instructions: 400000006 cycles: 100011543 heartbeat IPC: 4 cumulative IPC: 4 (Simulation time: 06 hr 39 min 56 sec)
Heartbeat CPU 5 instructions: 400000009 cycles: 100011617 heartbeat IPC: 4 cumulative IPC: 4 (Simulation time: 06 hr 39 min 56 sec)
Heartbeat CPU 3 instructions: 400000008 cycles: 100011625 heartbeat IPC: 4 cumulative IPC: 4 (Simulation time: 06 hr 39 min 56 sec)
Heartbeat CPU 6 instructions: 400000003 cycles: 100011821 heartbeat IPC: 4 cumulative IPC: 4 (Simulation time: 06 hr 39 min 56 sec)
Heartbeat CPU 7 instructions: 400000007 cycles: 100011971 heartbeat IPC: 4 cumulative IPC: 4 (Simulation time: 06 hr 39 min 56 sec)
Heartbeat CPU 2 instructions: 400000006 cycles: 100014465 heartbeat IPC: 4 cumulative IPC: 3.999 (Simulation time: 06 hr 39 min 57 sec)
Heartbeat CPU 1 instructions: 230000028 cycles: 100742164 heartbeat IPC: 2.667 cumulative IPC: 2.283 (Simulation time: 06 hr 42 min 42 sec)
*** Reached end of trace: (2, "traces/ocean_8t/ocean2.champsimtrace")
*** Reached end of trace: (5, "traces/ocean_8t/ocean5.champsimtrace")
*** Reached end of trace: (4, "traces/ocean_8t/ocean4.champsimtrace")
*** Reached end of trace: (6, "traces/ocean_8t/ocean6.champsimtrace")
*** Reached end of trace: (3, "traces/ocean_8t/ocean3.champsimtrace")
*** Reached end of trace: (7, "traces/ocean_8t/ocean7.champsimtrace")
Heartbeat CPU 4 instructions: 410000006 cycles: 102511543 heartbeat IPC: 4 cumulative IPC: 4 (Simulation time: 06 hr 49 min 26 sec)
Heartbeat CPU 5 instructions: 410000009 cycles: 102511617 heartbeat IPC: 4 cumulative IPC: 4 (Simulation time: 06 hr 49 min 26 sec)
Heartbeat CPU 3 instructions: 410000008 cycles: 102511625 heartbeat IPC: 4 cumulative IPC: 4 (Simulation time: 06 hr 49 min 26 sec)
Heartbeat CPU 6 instructions: 410000003 cycles: 102511821 heartbeat IPC: 4 cumulative IPC: 4 (Simulation time: 06 hr 49 min 26 sec)
Heartbeat CPU 7 instructions: 410000007 cycles: 102511971 heartbeat IPC: 4 cumulative IPC: 4 (Simulation time: 06 hr 49 min 26 sec)
Heartbeat CPU 2 instructions: 410000006 cycles: 102514465 heartbeat IPC: 4 cumulative IPC: 3.999 (Simulation time: 06 hr 49 min 27 sec)
Heartbeat CPU 1 instructions: 240000029 cycles: 104945405 heartbeat IPC: 2.379 cumulative IPC: 2.287 (Simulation time: 06 hr 57 min 34 sec)
Heartbeat CPU 4 instructions: 420000006 cycles: 105011543 heartbeat IPC: 4 cumulative IPC: 4 (Simulation time: 06 hr 57 min 47 sec)
Heartbeat CPU 5 instructions: 420000009 cycles: 105011617 heartbeat IPC: 4 cumulative IPC: 4 (Simulation time: 06 hr 57 min 47 sec)
Heartbeat CPU 3 instructions: 420000008 cycles: 105011625 heartbeat IPC: 4 cumulative IPC: 4 (Simulation time: 06 hr 57 min 47 sec)
Heartbeat CPU 6 instructions: 420000003 cycles: 105011821 heartbeat IPC: 4 cumulative IPC: 4 (Simulation time: 06 hr 57 min 48 sec)
Heartbeat CPU 7 instructions: 420000007 cycles: 105011971 heartbeat IPC: 4 cumulative IPC: 4 (Simulation time: 06 hr 57 min 48 sec)
Heartbeat CPU 2 instructions: 420000006 cycles: 105014465 heartbeat IPC: 4 cumulative IPC: 3.999 (Simulation time: 06 hr 57 min 48 sec)
Warmup finished CPU 0 instructions: 50000000 cycles: 106545380 cumulative IPC: 0.4693 (Simulation time: 07 hr 03 min 26 sec)
Warmup complete CPU 7 instructions: 426133643 cycles: 106545380 cumulative IPC: 4 (Simulation time: 07 hr 03 min 26 sec)
Warmup complete CPU 6 instructions: 426134239 cycles: 106545380 cumulative IPC: 4 (Simulation time: 07 hr 03 min 26 sec)
Warmup complete CPU 5 instructions: 426135061 cycles: 106545380 cumulative IPC: 4 (Simulation time: 07 hr 03 min 26 sec)
Warmup complete CPU 4 instructions: 426135354 cycles: 106545380 cumulative IPC: 4 (Simulation time: 07 hr 03 min 26 sec)
Warmup complete CPU 3 instructions: 426135028 cycles: 106545380 cumulative IPC: 4 (Simulation time: 07 hr 03 min 26 sec)
Warmup complete CPU 2 instructions: 426123666 cycles: 106545380 cumulative IPC: 3.999 (Simulation time: 07 hr 03 min 26 sec)
Warmup complete CPU 1 instructions: 243962211 cycles: 106545380 cumulative IPC: 2.29 (Simulation time: 07 hr 03 min 26 sec)
Warmup complete CPU 0 instructions: 50000000 cycles: 106545380 cumulative IPC: 0.4693 (Simulation time: 07 hr 03 min 26 sec)
Heartbeat CPU 0 instructions: 50000008 cycles: 106545383 heartbeat IPC: 0.4584 cumulative IPC: 2.667 (Simulation time: 07 hr 03 min 26 sec)
Heartbeat CPU 4 instructions: 430000006 cycles: 107511543 heartbeat IPC: 4 cumulative IPC: 4 (Simulation time: 07 hr 06 min 53 sec)
Heartbeat CPU 5 instructions: 430000009 cycles: 107511617 heartbeat IPC: 4 cumulative IPC: 4 (Simulation time: 07 hr 06 min 53 sec)
Heartbeat CPU 3 instructions: 430000008 cycles: 107511625 heartbeat IPC: 4 cumulative IPC: 4 (Simulation time: 07 hr 06 min 53 sec)
Heartbeat CPU 6 instructions: 430000003 cycles: 107511821 heartbeat IPC: 4 cumulative IPC: 4 (Simulation time: 07 hr 06 min 53 sec)
Heartbeat CPU 7 instructions: 430000007 cycles: 107511971 heartbeat IPC: 4 cumulative IPC: 4 (Simulation time: 07 hr 06 min 53 sec)
Heartbeat CPU 2 instructions: 430000006 cycles: 107514465 heartbeat IPC: 4 cumulative IPC: 4 (Simulation time: 07 hr 06 min 54 sec)
Heartbeat CPU 4 instructions: 440000006 cycles: 110011543 heartbeat IPC: 4 cumulative IPC: 4 (Simulation time: 07 hr 15 min 45 sec)
Heartbeat CPU 5 instructions: 440000009 cycles: 110011617 heartbeat IPC: 4 cumulative IPC: 4 (Simulation time: 07 hr 15 min 45 sec)
Heartbeat CPU 3 instructions: 440000008 cycles: 110011625 heartbeat IPC: 4 cumulative IPC: 4 (Simulation time: 07 hr 15 min 45 sec)
Heartbeat CPU 6 instructions: 440000003 cycles: 110011821 heartbeat IPC: 4 cumulative IPC: 4 (Simulation time: 07 hr 15 min 45 sec)
Heartbeat CPU 7 instructions: 440000007 cycles: 110011971 heartbeat IPC: 4 cumulative IPC: 4 (Simulation time: 07 hr 15 min 45 sec)
Heartbeat CPU 2 instructions: 440000006 cycles: 110014465 heartbeat IPC: 4 cumulative IPC: 4 (Simulation time: 07 hr 15 min 45 sec)
Heartbeat CPU 4 instructions: 450000006 cycles: 112511543 heartbeat IPC: 4 cumulative IPC: 4 (Simulation time: 07 hr 24 min 28 sec)
Heartbeat CPU 5 instructions: 450000009 cycles: 112511617 heartbeat IPC: 4 cumulative IPC: 4 (Simulation time: 07 hr 24 min 28 sec)
Heartbeat CPU 3 instructions: 450000008 cycles: 112511625 heartbeat IPC: 4 cumulative IPC: 4 (Simulation time: 07 hr 24 min 28 sec)
Heartbeat CPU 6 instructions: 450000003 cycles: 112511821 heartbeat IPC: 4 cumulative IPC: 4 (Simulation time: 07 hr 24 min 28 sec)
Heartbeat CPU 7 instructions: 450000007 cycles: 112511971 heartbeat IPC: 4 cumulative IPC: 4 (Simulation time: 07 hr 24 min 28 sec)
Heartbeat CPU 2 instructions: 450000006 cycles: 112514465 heartbeat IPC: 4 cumulative IPC: 4 (Simulation time: 07 hr 24 min 29 sec)
*** Reached end of trace: (2, "traces/ocean_8t/ocean2.champsimtrace")
*** Reached end of trace: (5, "traces/ocean_8t/ocean5.champsimtrace")
*** Reached end of trace: (4, "traces/ocean_8t/ocean4.champsimtrace")
*** Reached end of trace: (6, "traces/ocean_8t/ocean6.champsimtrace")
*** Reached end of trace: (3, "traces/ocean_8t/ocean3.champsimtrace")
*** Reached end of trace: (7, "traces/ocean_8t/ocean7.champsimtrace")
Heartbeat CPU 4 instructions: 460000008 cycles: 115011585 heartbeat IPC: 4 cumulative IPC: 4 (Simulation time: 07 hr 33 min 03 sec)
Heartbeat CPU 3 instructions: 460000010 cycles: 115011640 heartbeat IPC: 4 cumulative IPC: 4 (Simulation time: 07 hr 33 min 03 sec)
Heartbeat CPU 5 instructions: 460000009 cycles: 115011641 heartbeat IPC: 4 cumulative IPC: 4 (Simulation time: 07 hr 33 min 03 sec)
Heartbeat CPU 6 instructions: 460000003 cycles: 115011848 heartbeat IPC: 4 cumulative IPC: 4 (Simulation time: 07 hr 33 min 03 sec)
Heartbeat CPU 7 instructions: 460000008 cycles: 115012001 heartbeat IPC: 4 cumulative IPC: 4 (Simulation time: 07 hr 33 min 03 sec)
Heartbeat CPU 2 instructions: 460000007 cycles: 115014508 heartbeat IPC: 4 cumulative IPC: 4 (Simulation time: 07 hr 33 min 04 sec)
Heartbeat CPU 4 instructions: 470000008 cycles: 117511585 heartbeat IPC: 4 cumulative IPC: 4 (Simulation time: 07 hr 41 min 31 sec)
Heartbeat CPU 3 instructions: 470000010 cycles: 117511640 heartbeat IPC: 4 cumulative IPC: 4 (Simulation time: 07 hr 41 min 31 sec)
Heartbeat CPU 5 instructions: 470000009 cycles: 117511641 heartbeat IPC: 4 cumulative IPC: 4 (Simulation time: 07 hr 41 min 31 sec)
Heartbeat CPU 6 instructions: 470000003 cycles: 117511848 heartbeat IPC: 4 cumulative IPC: 4 (Simulation time: 07 hr 41 min 31 sec)
Heartbeat CPU 7 instructions: 470000008 cycles: 117512001 heartbeat IPC: 4 cumulative IPC: 4 (Simulation time: 07 hr 41 min 31 sec)
Heartbeat CPU 2 instructions: 470000007 cycles: 117514508 heartbeat IPC: 4 cumulative IPC: 4 (Simulation time: 07 hr 41 min 32 sec)
Heartbeat CPU 4 instructions: 480000008 cycles: 120011585 heartbeat IPC: 4 cumulative IPC: 4 (Simulation time: 07 hr 50 min 21 sec)
Heartbeat CPU 3 instructions: 480000010 cycles: 120011640 heartbeat IPC: 4 cumulative IPC: 4 (Simulation time: 07 hr 50 min 21 sec)
Heartbeat CPU 5 instructions: 480000009 cycles: 120011641 heartbeat IPC: 4 cumulative IPC: 4 (Simulation time: 07 hr 50 min 21 sec)
Heartbeat CPU 6 instructions: 480000003 cycles: 120011848 heartbeat IPC: 4 cumulative IPC: 4 (Simulation time: 07 hr 50 min 21 sec)
Heartbeat CPU 7 instructions: 480000008 cycles: 120012001 heartbeat IPC: 4 cumulative IPC: 4 (Simulation time: 07 hr 50 min 22 sec)
Heartbeat CPU 2 instructions: 480000007 cycles: 120014508 heartbeat IPC: 4 cumulative IPC: 4 (Simulation time: 07 hr 50 min 22 sec)
Heartbeat CPU 4 instructions: 490000008 cycles: 122511585 heartbeat IPC: 4 cumulative IPC: 4 (Simulation time: 07 hr 59 min 28 sec)
Heartbeat CPU 3 instructions: 490000010 cycles: 122511640 heartbeat IPC: 4 cumulative IPC: 4 (Simulation time: 07 hr 59 min 28 sec)
Heartbeat CPU 5 instructions: 490000009 cycles: 122511641 heartbeat IPC: 4 cumulative IPC: 4 (Simulation time: 07 hr 59 min 28 sec)
Heartbeat CPU 6 instructions: 490000003 cycles: 122511848 heartbeat IPC: 4 cumulative IPC: 4 (Simulation time: 07 hr 59 min 28 sec)
Heartbeat CPU 7 instructions: 490000008 cycles: 122512001 heartbeat IPC: 4 cumulative IPC: 4 (Simulation time: 07 hr 59 min 28 sec)
Heartbeat CPU 2 instructions: 490000007 cycles: 122514508 heartbeat IPC: 4 cumulative IPC: 4 (Simulation time: 07 hr 59 min 29 sec)
*** Reached end of trace: (2, "traces/ocean_8t/ocean2.champsimtrace")
*** Reached end of trace: (5, "traces/ocean_8t/ocean5.champsimtrace")
*** Reached end of trace: (4, "traces/ocean_8t/ocean4.champsimtrace")
*** Reached end of trace: (6, "traces/ocean_8t/ocean6.champsimtrace")
*** Reached end of trace: (3, "traces/ocean_8t/ocean3.champsimtrace")
Heartbeat CPU 4 instructions: 500000009 cycles: 125011618 heartbeat IPC: 4 cumulative IPC: 4 (Simulation time: 08 hr 08 min 36 sec)
Heartbeat CPU 3 instructions: 500000013 cycles: 125011655 heartbeat IPC: 4 cumulative IPC: 4 (Simulation time: 08 hr 08 min 36 sec)
Heartbeat CPU 5 instructions: 500000009 cycles: 125011662 heartbeat IPC: 4 cumulative IPC: 4 (Simulation time: 08 hr 08 min 36 sec)
Heartbeat CPU 6 instructions: 500000004 cycles: 125011881 heartbeat IPC: 4 cumulative IPC: 4 (Simulation time: 08 hr 08 min 36 sec)
Heartbeat CPU 7 instructions: 500000008 cycles: 125012001 heartbeat IPC: 4 cumulative IPC: 4 (Simulation time: 08 hr 08 min 36 sec)
Heartbeat CPU 2 instructions: 500000008 cycles: 125014551 heartbeat IPC: 4 cumulative IPC: 4 (Simulation time: 08 hr 08 min 36 sec)
*** Reached end of trace: (7, "traces/ocean_8t/ocean7.champsimtrace")
Heartbeat CPU 4 instructions: 510000009 cycles: 127511618 heartbeat IPC: 4 cumulative IPC: 4 (Simulation time: 08 hr 17 min 41 sec)
Heartbeat CPU 3 instructions: 510000013 cycles: 127511655 heartbeat IPC: 4 cumulative IPC: 4 (Simulation time: 08 hr 17 min 41 sec)
Heartbeat CPU 5 instructions: 510000009 cycles: 127511662 heartbeat IPC: 4 cumulative IPC: 4 (Simulation time: 08 hr 17 min 41 sec)
Heartbeat CPU 6 instructions: 510000004 cycles: 127511881 heartbeat IPC: 4 cumulative IPC: 4 (Simulation time: 08 hr 17 min 41 sec)
Heartbeat CPU 7 instructions: 510000010 cycles: 127512033 heartbeat IPC: 4 cumulative IPC: 4 (Simulation time: 08 hr 17 min 41 sec)
Heartbeat CPU 2 instructions: 510000008 cycles: 127514551 heartbeat IPC: 4 cumulative IPC: 4 (Simulation time: 08 hr 17 min 42 sec)
Heartbeat CPU 4 instructions: 520000009 cycles: 130011618 heartbeat IPC: 4 cumulative IPC: 4 (Simulation time: 08 hr 26 min 44 sec)
Heartbeat CPU 3 instructions: 520000013 cycles: 130011655 heartbeat IPC: 4 cumulative IPC: 4 (Simulation time: 08 hr 26 min 44 sec)
Heartbeat CPU 5 instructions: 520000009 cycles: 130011662 heartbeat IPC: 4 cumulative IPC: 4 (Simulation time: 08 hr 26 min 44 sec)
Heartbeat CPU 6 instructions: 520000004 cycles: 130011881 heartbeat IPC: 4 cumulative IPC: 4 (Simulation time: 08 hr 26 min 44 sec)
Heartbeat CPU 7 instructions: 520000010 cycles: 130012033 heartbeat IPC: 4 cumulative IPC: 4 (Simulation time: 08 hr 26 min 44 sec)
Heartbeat CPU 2 instructions: 520000008 cycles: 130014551 heartbeat IPC: 4 cumulative IPC: 4 (Simulation time: 08 hr 26 min 45 sec)
Simulation finished CPU 3 instructions: 100000001 cycles: 25000029 cumulative IPC: 4 (Simulation time: 08 hr 32 min 27 sec)
Simulation finished CPU 5 instructions: 100000000 cycles: 25000045 cumulative IPC: 4 (Simulation time: 08 hr 32 min 27 sec)
Simulation finished CPU 6 instructions: 100000001 cycles: 25000060 cumulative IPC: 4 (Simulation time: 08 hr 32 min 27 sec)
Simulation finished CPU 7 instructions: 100000003 cycles: 25000062 cumulative IPC: 4 (Simulation time: 08 hr 32 min 27 sec)
Simulation finished CPU 4 instructions: 100000003 cycles: 25000075 cumulative IPC: 4 (Simulation time: 08 hr 32 min 27 sec)
Simulation finished CPU 2 instructions: 100000002 cycles: 25000086 cumulative IPC: 4 (Simulation time: 08 hr 32 min 27 sec)
Heartbeat CPU 4 instructions: 530000009 cycles: 132511618 heartbeat IPC: 4 cumulative IPC: 4 (Simulation time: 08 hr 35 min 59 sec)
Heartbeat CPU 3 instructions: 530000013 cycles: 132511655 heartbeat IPC: 4 cumulative IPC: 4 (Simulation time: 08 hr 35 min 59 sec)
Heartbeat CPU 5 instructions: 530000009 cycles: 132511662 heartbeat IPC: 4 cumulative IPC: 4 (Simulation time: 08 hr 35 min 59 sec)
Heartbeat CPU 6 instructions: 530000004 cycles: 132511881 heartbeat IPC: 4 cumulative IPC: 4 (Simulation time: 08 hr 35 min 59 sec)
Heartbeat CPU 7 instructions: 530000010 cycles: 132512033 heartbeat IPC: 4 cumulative IPC: 4 (Simulation time: 08 hr 35 min 59 sec)
Heartbeat CPU 2 instructions: 530000008 cycles: 132514551 heartbeat IPC: 4 cumulative IPC: 4 (Simulation time: 08 hr 36 min 00 sec)
Heartbeat CPU 1 instructions: 250000029 cycles: 133566156 heartbeat IPC: 0.3494 cumulative IPC: 0.2235 (Simulation time: 08 hr 39 min 54 sec)
Heartbeat CPU 4 instructions: 540000009 cycles: 135011618 heartbeat IPC: 4 cumulative IPC: 4 (Simulation time: 08 hr 45 min 23 sec)
Heartbeat CPU 3 instructions: 540000013 cycles: 135011655 heartbeat IPC: 4 cumulative IPC: 4 (Simulation time: 08 hr 45 min 23 sec)
Heartbeat CPU 5 instructions: 540000009 cycles: 135011662 heartbeat IPC: 4 cumulative IPC: 4 (Simulation time: 08 hr 45 min 23 sec)
Heartbeat CPU 6 instructions: 540000004 cycles: 135011881 heartbeat IPC: 4 cumulative IPC: 4 (Simulation time: 08 hr 45 min 23 sec)
Heartbeat CPU 7 instructions: 540000010 cycles: 135012033 heartbeat IPC: 4 cumulative IPC: 4 (Simulation time: 08 hr 45 min 23 sec)
Heartbeat CPU 2 instructions: 540000008 cycles: 135014551 heartbeat IPC: 4 cumulative IPC: 4 (Simulation time: 08 hr 45 min 24 sec)
*** Reached end of trace: (2, "traces/ocean_8t/ocean2.champsimtrace")
*** Reached end of trace: (5, "traces/ocean_8t/ocean5.champsimtrace")
*** Reached end of trace: (4, "traces/ocean_8t/ocean4.champsimtrace")
*** Reached end of trace: (6, "traces/ocean_8t/ocean6.champsimtrace")
*** Reached end of trace: (3, "traces/ocean_8t/ocean3.champsimtrace")
*** Reached end of trace: (7, "traces/ocean_8t/ocean7.champsimtrace")
Heartbeat CPU 4 instructions: 550000010 cycles: 137511651 heartbeat IPC: 4 cumulative IPC: 4 (Simulation time: 08 hr 54 min 54 sec)
Heartbeat CPU 3 instructions: 550000016 cycles: 137511670 heartbeat IPC: 4 cumulative IPC: 4 (Simulation time: 08 hr 54 min 54 sec)
Heartbeat CPU 5 instructions: 550000009 cycles: 137511683 heartbeat IPC: 4 cumulative IPC: 4 (Simulation time: 08 hr 54 min 54 sec)
Heartbeat CPU 6 instructions: 550000005 cycles: 137511914 heartbeat IPC: 4 cumulative IPC: 4 (Simulation time: 08 hr 54 min 54 sec)
Heartbeat CPU 7 instructions: 550000012 cycles: 137512065 heartbeat IPC: 4 cumulative IPC: 4 (Simulation time: 08 hr 54 min 54 sec)
Heartbeat CPU 2 instructions: 550000009 cycles: 137514594 heartbeat IPC: 4 cumulative IPC: 4 (Simulation time: 08 hr 54 min 54 sec)
Heartbeat CPU 4 instructions: 560000010 cycles: 140011651 heartbeat IPC: 4 cumulative IPC: 4 (Simulation time: 09 hr 04 min 27 sec)
Heartbeat CPU 3 instructions: 560000016 cycles: 140011670 heartbeat IPC: 4 cumulative IPC: 4 (Simulation time: 09 hr 04 min 27 sec)
Heartbeat CPU 5 instructions: 560000009 cycles: 140011683 heartbeat IPC: 4 cumulative IPC: 4 (Simulation time: 09 hr 04 min 27 sec)
Heartbeat CPU 6 instructions: 560000005 cycles: 140011914 heartbeat IPC: 4 cumulative IPC: 4 (Simulation time: 09 hr 04 min 27 sec)
Heartbeat CPU 7 instructions: 560000012 cycles: 140012065 heartbeat IPC: 4 cumulative IPC: 4 (Simulation time: 09 hr 04 min 27 sec)
Heartbeat CPU 2 instructions: 560000009 cycles: 140014594 heartbeat IPC: 4 cumulative IPC: 4 (Simulation time: 09 hr 04 min 28 sec)
Heartbeat CPU 4 instructions: 570000010 cycles: 142511651 heartbeat IPC: 4 cumulative IPC: 4 (Simulation time: 09 hr 13 min 36 sec)
Heartbeat CPU 3 instructions: 570000016 cycles: 142511670 heartbeat IPC: 4 cumulative IPC: 4 (Simulation time: 09 hr 13 min 36 sec)
Heartbeat CPU 5 instructions: 570000009 cycles: 142511683 heartbeat IPC: 4 cumulative IPC: 4 (Simulation time: 09 hr 13 min 36 sec)
Heartbeat CPU 6 instructions: 570000005 cycles: 142511914 heartbeat IPC: 4 cumulative IPC: 4 (Simulation time: 09 hr 13 min 37 sec)
Heartbeat CPU 7 instructions: 570000012 cycles: 142512065 heartbeat IPC: 4 cumulative IPC: 4 (Simulation time: 09 hr 13 min 37 sec)
Heartbeat CPU 2 instructions: 570000009 cycles: 142514594 heartbeat IPC: 4 cumulative IPC: 4 (Simulation time: 09 hr 13 min 37 sec)
Heartbeat CPU 4 instructions: 580000010 cycles: 145011651 heartbeat IPC: 4 cumulative IPC: 4 (Simulation time: 09 hr 23 min 01 sec)
Heartbeat CPU 3 instructions: 580000016 cycles: 145011670 heartbeat IPC: 4 cumulative IPC: 4 (Simulation time: 09 hr 23 min 01 sec)
Heartbeat CPU 5 instructions: 580000009 cycles: 145011683 heartbeat IPC: 4 cumulative IPC: 4 (Simulation time: 09 hr 23 min 01 sec)
Heartbeat CPU 6 instructions: 580000005 cycles: 145011914 heartbeat IPC: 4 cumulative IPC: 4 (Simulation time: 09 hr 23 min 01 sec)
Heartbeat CPU 7 instructions: 580000012 cycles: 145012065 heartbeat IPC: 4 cumulative IPC: 4 (Simulation time: 09 hr 23 min 01 sec)
Heartbeat CPU 2 instructions: 580000009 cycles: 145014594 heartbeat IPC: 4 cumulative IPC: 4 (Simulation time: 09 hr 23 min 01 sec)
*** Reached end of trace: (2, "traces/ocean_8t/ocean2.champsimtrace")
*** Reached end of trace: (5, "traces/ocean_8t/ocean5.champsimtrace")
*** Reached end of trace: (4, "traces/ocean_8t/ocean4.champsimtrace")
*** Reached end of trace: (6, "traces/ocean_8t/ocean6.champsimtrace")
Heartbeat CPU 3 instructions: 590000016 cycles: 147511670 heartbeat IPC: 4 cumulative IPC: 4 (Simulation time: 09 hr 32 min 38 sec)
Heartbeat CPU 4 instructions: 590000011 cycles: 147511684 heartbeat IPC: 4 cumulative IPC: 4 (Simulation time: 09 hr 32 min 38 sec)
Heartbeat CPU 5 instructions: 590000009 cycles: 147511704 heartbeat IPC: 4 cumulative IPC: 4 (Simulation time: 09 hr 32 min 38 sec)
Heartbeat CPU 6 instructions: 590000006 cycles: 147511947 heartbeat IPC: 4 cumulative IPC: 4 (Simulation time: 09 hr 32 min 38 sec)
Heartbeat CPU 7 instructions: 590000012 cycles: 147512065 heartbeat IPC: 4 cumulative IPC: 4 (Simulation time: 09 hr 32 min 38 sec)
Heartbeat CPU 2 instructions: 590000010 cycles: 147514637 heartbeat IPC: 4 cumulative IPC: 4 (Simulation time: 09 hr 32 min 39 sec)
*** Reached end of trace: (3, "traces/ocean_8t/ocean3.champsimtrace")
*** Reached end of trace: (7, "traces/ocean_8t/ocean7.champsimtrace")
Heartbeat CPU 4 instructions: 600000011 cycles: 150011684 heartbeat IPC: 4 cumulative IPC: 4 (Simulation time: 09 hr 42 min 07 sec)
Heartbeat CPU 3 instructions: 600000019 cycles: 150011685 heartbeat IPC: 4 cumulative IPC: 4 (Simulation time: 09 hr 42 min 07 sec)
Heartbeat CPU 5 instructions: 600000009 cycles: 150011704 heartbeat IPC: 4 cumulative IPC: 4 (Simulation time: 09 hr 42 min 07 sec)
Heartbeat CPU 6 instructions: 600000006 cycles: 150011947 heartbeat IPC: 4 cumulative IPC: 4 (Simulation time: 09 hr 42 min 07 sec)
Heartbeat CPU 7 instructions: 600000014 cycles: 150012097 heartbeat IPC: 4 cumulative IPC: 4 (Simulation time: 09 hr 42 min 07 sec)
Heartbeat CPU 2 instructions: 600000010 cycles: 150014637 heartbeat IPC: 4 cumulative IPC: 4 (Simulation time: 09 hr 42 min 08 sec)
Heartbeat CPU 4 instructions: 610000011 cycles: 152511684 heartbeat IPC: 4 cumulative IPC: 4 (Simulation time: 09 hr 51 min 19 sec)
Heartbeat CPU 3 instructions: 610000019 cycles: 152511685 heartbeat IPC: 4 cumulative IPC: 4 (Simulation time: 09 hr 51 min 19 sec)
Heartbeat CPU 5 instructions: 610000009 cycles: 152511704 heartbeat IPC: 4 cumulative IPC: 4 (Simulation time: 09 hr 51 min 19 sec)
Heartbeat CPU 6 instructions: 610000006 cycles: 152511947 heartbeat IPC: 4 cumulative IPC: 4 (Simulation time: 09 hr 51 min 19 sec)
Heartbeat CPU 7 instructions: 610000014 cycles: 152512097 heartbeat IPC: 4 cumulative IPC: 4 (Simulation time: 09 hr 51 min 19 sec)
Heartbeat CPU 2 instructions: 610000010 cycles: 152514637 heartbeat IPC: 4 cumulative IPC: 4 (Simulation time: 09 hr 51 min 20 sec)
Heartbeat CPU 4 instructions: 620000011 cycles: 155011684 heartbeat IPC: 4 cumulative IPC: 4 (Simulation time: 10 hr 00 min 51 sec)
Heartbeat CPU 3 instructions: 620000019 cycles: 155011685 heartbeat IPC: 4 cumulative IPC: 4 (Simulation time: 10 hr 00 min 51 sec)
Heartbeat CPU 5 instructions: 620000009 cycles: 155011704 heartbeat IPC: 4 cumulative IPC: 4 (Simulation time: 10 hr 00 min 51 sec)
Heartbeat CPU 6 instructions: 620000006 cycles: 155011947 heartbeat IPC: 4 cumulative IPC: 4 (Simulation time: 10 hr 00 min 51 sec)
Heartbeat CPU 7 instructions: 620000014 cycles: 155012097 heartbeat IPC: 4 cumulative IPC: 4 (Simulation time: 10 hr 00 min 51 sec)
Heartbeat CPU 2 instructions: 620000010 cycles: 155014637 heartbeat IPC: 4 cumulative IPC: 4 (Simulation time: 10 hr 00 min 52 sec)
Heartbeat CPU 4 instructions: 630000011 cycles: 157511684 heartbeat IPC: 4 cumulative IPC: 4 (Simulation time: 10 hr 10 min 10 sec)
Heartbeat CPU 3 instructions: 630000019 cycles: 157511685 heartbeat IPC: 4 cumulative IPC: 4 (Simulation time: 10 hr 10 min 10 sec)
Heartbeat CPU 5 instructions: 630000009 cycles: 157511704 heartbeat IPC: 4 cumulative IPC: 4 (Simulation time: 10 hr 10 min 10 sec)
Heartbeat CPU 6 instructions: 630000006 cycles: 157511947 heartbeat IPC: 4 cumulative IPC: 4 (Simulation time: 10 hr 10 min 10 sec)
Heartbeat CPU 7 instructions: 630000014 cycles: 157512097 heartbeat IPC: 4 cumulative IPC: 4 (Simulation time: 10 hr 10 min 11 sec)
Heartbeat CPU 2 instructions: 630000010 cycles: 157514637 heartbeat IPC: 4 cumulative IPC: 4 (Simulation time: 10 hr 10 min 11 sec)
*** Reached end of trace: (2, "traces/ocean_8t/ocean2.champsimtrace")
*** Reached end of trace: (5, "traces/ocean_8t/ocean5.champsimtrace")
*** Reached end of trace: (4, "traces/ocean_8t/ocean4.champsimtrace")
*** Reached end of trace: (6, "traces/ocean_8t/ocean6.champsimtrace")
*** Reached end of trace: (3, "traces/ocean_8t/ocean3.champsimtrace")
*** Reached end of trace: (7, "traces/ocean_8t/ocean7.champsimtrace")
Heartbeat CPU 3 instructions: 640000022 cycles: 160011700 heartbeat IPC: 4 cumulative IPC: 4 (Simulation time: 10 hr 19 min 25 sec)
Heartbeat CPU 4 instructions: 640000012 cycles: 160011717 heartbeat IPC: 4 cumulative IPC: 4 (Simulation time: 10 hr 19 min 25 sec)
Heartbeat CPU 5 instructions: 640000009 cycles: 160011725 heartbeat IPC: 4 cumulative IPC: 4 (Simulation time: 10 hr 19 min 25 sec)
Heartbeat CPU 6 instructions: 640000007 cycles: 160011980 heartbeat IPC: 4 cumulative IPC: 4 (Simulation time: 10 hr 19 min 25 sec)
Heartbeat CPU 7 instructions: 640000016 cycles: 160012129 heartbeat IPC: 4 cumulative IPC: 4 (Simulation time: 10 hr 19 min 25 sec)
Heartbeat CPU 2 instructions: 640000011 cycles: 160014680 heartbeat IPC: 4 cumulative IPC: 4 (Simulation time: 10 hr 19 min 25 sec)
Heartbeat CPU 3 instructions: 650000022 cycles: 162511700 heartbeat IPC: 4 cumulative IPC: 4 (Simulation time: 10 hr 28 min 40 sec)
Heartbeat CPU 4 instructions: 650000012 cycles: 162511717 heartbeat IPC: 4 cumulative IPC: 4 (Simulation time: 10 hr 28 min 40 sec)
Heartbeat CPU 5 instructions: 650000009 cycles: 162511725 heartbeat IPC: 4 cumulative IPC: 4 (Simulation time: 10 hr 28 min 40 sec)
Heartbeat CPU 6 instructions: 650000007 cycles: 162511980 heartbeat IPC: 4 cumulative IPC: 4 (Simulation time: 10 hr 28 min 41 sec)
Heartbeat CPU 7 instructions: 650000016 cycles: 162512129 heartbeat IPC: 4 cumulative IPC: 4 (Simulation time: 10 hr 28 min 41 sec)
Heartbeat CPU 2 instructions: 650000011 cycles: 162514680 heartbeat IPC: 4 cumulative IPC: 4 (Simulation time: 10 hr 28 min 41 sec)
Heartbeat CPU 3 instructions: 660000022 cycles: 165011700 heartbeat IPC: 4 cumulative IPC: 4 (Simulation time: 10 hr 37 min 38 sec)
Heartbeat CPU 4 instructions: 660000012 cycles: 165011717 heartbeat IPC: 4 cumulative IPC: 4 (Simulation time: 10 hr 37 min 38 sec)
Heartbeat CPU 5 instructions: 660000009 cycles: 165011725 heartbeat IPC: 4 cumulative IPC: 4 (Simulation time: 10 hr 37 min 38 sec)
Heartbeat CPU 6 instructions: 660000007 cycles: 165011980 heartbeat IPC: 4 cumulative IPC: 4 (Simulation time: 10 hr 37 min 38 sec)
Heartbeat CPU 7 instructions: 660000016 cycles: 165012129 heartbeat IPC: 4 cumulative IPC: 4 (Simulation time: 10 hr 37 min 38 sec)
Heartbeat CPU 2 instructions: 660000011 cycles: 165014680 heartbeat IPC: 4 cumulative IPC: 4 (Simulation time: 10 hr 37 min 39 sec)
Heartbeat CPU 3 instructions: 670000022 cycles: 167511700 heartbeat IPC: 4 cumulative IPC: 4 (Simulation time: 10 hr 46 min 30 sec)
Heartbeat CPU 4 instructions: 670000012 cycles: 167511717 heartbeat IPC: 4 cumulative IPC: 4 (Simulation time: 10 hr 46 min 30 sec)
Heartbeat CPU 5 instructions: 670000009 cycles: 167511725 heartbeat IPC: 4 cumulative IPC: 4 (Simulation time: 10 hr 46 min 30 sec)
Heartbeat CPU 6 instructions: 670000007 cycles: 167511980 heartbeat IPC: 4 cumulative IPC: 4 (Simulation time: 10 hr 46 min 30 sec)
Heartbeat CPU 7 instructions: 670000016 cycles: 167512129 heartbeat IPC: 4 cumulative IPC: 4 (Simulation time: 10 hr 46 min 30 sec)
Heartbeat CPU 2 instructions: 670000011 cycles: 167514680 heartbeat IPC: 4 cumulative IPC: 4 (Simulation time: 10 hr 46 min 31 sec)
*** Reached end of trace: (2, "traces/ocean_8t/ocean2.champsimtrace")
*** Reached end of trace: (5, "traces/ocean_8t/ocean5.champsimtrace")
*** Reached end of trace: (4, "traces/ocean_8t/ocean4.champsimtrace")
*** Reached end of trace: (6, "traces/ocean_8t/ocean6.champsimtrace")
Heartbeat CPU 3 instructions: 680000022 cycles: 170011700 heartbeat IPC: 4 cumulative IPC: 4 (Simulation time: 10 hr 55 min 09 sec)
Heartbeat CPU 5 instructions: 680000009 cycles: 170011746 heartbeat IPC: 4 cumulative IPC: 4 (Simulation time: 10 hr 55 min 09 sec)
Heartbeat CPU 4 instructions: 680000013 cycles: 170011750 heartbeat IPC: 4 cumulative IPC: 4 (Simulation time: 10 hr 55 min 09 sec)
Heartbeat CPU 6 instructions: 680000008 cycles: 170012013 heartbeat IPC: 4 cumulative IPC: 4 (Simulation time: 10 hr 55 min 10 sec)
Heartbeat CPU 7 instructions: 680000016 cycles: 170012129 heartbeat IPC: 4 cumulative IPC: 4 (Simulation time: 10 hr 55 min 10 sec)
Heartbeat CPU 2 instructions: 680000012 cycles: 170014723 heartbeat IPC: 4 cumulative IPC: 4 (Simulation time: 10 hr 55 min 10 sec)
*** Reached end of trace: (3, "traces/ocean_8t/ocean3.champsimtrace")
*** Reached end of trace: (7, "traces/ocean_8t/ocean7.champsimtrace")
Heartbeat CPU 3 instructions: 690000025 cycles: 172511715 heartbeat IPC: 4 cumulative IPC: 4 (Simulation time: 11 hr 04 min 04 sec)
Heartbeat CPU 5 instructions: 690000009 cycles: 172511746 heartbeat IPC: 4 cumulative IPC: 4 (Simulation time: 11 hr 04 min 04 sec)
Heartbeat CPU 4 instructions: 690000013 cycles: 172511750 heartbeat IPC: 4 cumulative IPC: 4 (Simulation time: 11 hr 04 min 04 sec)
Heartbeat CPU 6 instructions: 690000008 cycles: 172512013 heartbeat IPC: 4 cumulative IPC: 4 (Simulation time: 11 hr 04 min 04 sec)
Heartbeat CPU 7 instructions: 690000018 cycles: 172512161 heartbeat IPC: 4 cumulative IPC: 4 (Simulation time: 11 hr 04 min 04 sec)
Heartbeat CPU 2 instructions: 690000012 cycles: 172514723 heartbeat IPC: 4 cumulative IPC: 4 (Simulation time: 11 hr 04 min 05 sec)
Heartbeat CPU 3 instructions: 700000025 cycles: 175011715 heartbeat IPC: 4 cumulative IPC: 4 (Simulation time: 11 hr 12 min 48 sec)
Heartbeat CPU 5 instructions: 700000009 cycles: 175011746 heartbeat IPC: 4 cumulative IPC: 4 (Simulation time: 11 hr 12 min 48 sec)
Heartbeat CPU 4 instructions: 700000013 cycles: 175011750 heartbeat IPC: 4 cumulative IPC: 4 (Simulation time: 11 hr 12 min 48 sec)
Heartbeat CPU 6 instructions: 700000008 cycles: 175012013 heartbeat IPC: 4 cumulative IPC: 4 (Simulation time: 11 hr 12 min 48 sec)
Heartbeat CPU 7 instructions: 700000018 cycles: 175012161 heartbeat IPC: 4 cumulative IPC: 4 (Simulation time: 11 hr 12 min 48 sec)
Heartbeat CPU 2 instructions: 700000012 cycles: 175014723 heartbeat IPC: 4 cumulative IPC: 4 (Simulation time: 11 hr 12 min 49 sec)
Heartbeat CPU 0 instructions: 60000011 cycles: 176247872 heartbeat IPC: 0.1435 cumulative IPC: 0.1435 (Simulation time: 11 hr 17 min 10 sec)
Heartbeat CPU 3 instructions: 710000025 cycles: 177511715 heartbeat IPC: 4 cumulative IPC: 4 (Simulation time: 11 hr 21 min 37 sec)
Heartbeat CPU 5 instructions: 710000009 cycles: 177511746 heartbeat IPC: 4 cumulative IPC: 4 (Simulation time: 11 hr 21 min 37 sec)
Heartbeat CPU 4 instructions: 710000013 cycles: 177511750 heartbeat IPC: 4 cumulative IPC: 4 (Simulation time: 11 hr 21 min 37 sec)
Heartbeat CPU 6 instructions: 710000008 cycles: 177512013 heartbeat IPC: 4 cumulative IPC: 4 (Simulation time: 11 hr 21 min 37 sec)
Heartbeat CPU 7 instructions: 710000018 cycles: 177512161 heartbeat IPC: 4 cumulative IPC: 4 (Simulation time: 11 hr 21 min 37 sec)
Heartbeat CPU 2 instructions: 710000012 cycles: 177514723 heartbeat IPC: 4 cumulative IPC: 4 (Simulation time: 11 hr 21 min 37 sec)
Heartbeat CPU 3 instructions: 720000025 cycles: 180011715 heartbeat IPC: 4 cumulative IPC: 4 (Simulation time: 11 hr 30 min 33 sec)
Heartbeat CPU 5 instructions: 720000009 cycles: 180011746 heartbeat IPC: 4 cumulative IPC: 4 (Simulation time: 11 hr 30 min 33 sec)
Heartbeat CPU 4 instructions: 720000013 cycles: 180011750 heartbeat IPC: 4 cumulative IPC: 4 (Simulation time: 11 hr 30 min 33 sec)
Heartbeat CPU 6 instructions: 720000008 cycles: 180012013 heartbeat IPC: 4 cumulative IPC: 4 (Simulation time: 11 hr 30 min 33 sec)
Heartbeat CPU 7 instructions: 720000018 cycles: 180012161 heartbeat IPC: 4 cumulative IPC: 4 (Simulation time: 11 hr 30 min 33 sec)
Heartbeat CPU 2 instructions: 720000012 cycles: 180014723 heartbeat IPC: 4 cumulative IPC: 4 (Simulation time: 11 hr 30 min 33 sec)
*** Reached end of trace: (2, "traces/ocean_8t/ocean2.champsimtrace")
*** Reached end of trace: (5, "traces/ocean_8t/ocean5.champsimtrace")
*** Reached end of trace: (4, "traces/ocean_8t/ocean4.champsimtrace")
*** Reached end of trace: (6, "traces/ocean_8t/ocean6.champsimtrace")
*** Reached end of trace: (3, "traces/ocean_8t/ocean3.champsimtrace")
*** Reached end of trace: (7, "traces/ocean_8t/ocean7.champsimtrace")
Heartbeat CPU 3 instructions: 730000028 cycles: 182511730 heartbeat IPC: 4 cumulative IPC: 4 (Simulation time: 11 hr 39 min 42 sec)
Heartbeat CPU 5 instructions: 730000009 cycles: 182511767 heartbeat IPC: 4 cumulative IPC: 4 (Simulation time: 11 hr 39 min 42 sec)
Heartbeat CPU 4 instructions: 730000014 cycles: 182511783 heartbeat IPC: 4 cumulative IPC: 4 (Simulation time: 11 hr 39 min 42 sec)
Heartbeat CPU 6 instructions: 730000009 cycles: 182512046 heartbeat IPC: 4 cumulative IPC: 4 (Simulation time: 11 hr 39 min 42 sec)
Heartbeat CPU 7 instructions: 730000020 cycles: 182512193 heartbeat IPC: 4 cumulative IPC: 4 (Simulation time: 11 hr 39 min 42 sec)
Heartbeat CPU 2 instructions: 730000013 cycles: 182514766 heartbeat IPC: 4 cumulative IPC: 4 (Simulation time: 11 hr 39 min 43 sec)
Heartbeat CPU 3 instructions: 740000028 cycles: 185011730 heartbeat IPC: 4 cumulative IPC: 4 (Simulation time: 11 hr 48 min 48 sec)
Heartbeat CPU 5 instructions: 740000009 cycles: 185011767 heartbeat IPC: 4 cumulative IPC: 4 (Simulation time: 11 hr 48 min 48 sec)
Heartbeat CPU 4 instructions: 740000014 cycles: 185011783 heartbeat IPC: 4 cumulative IPC: 4 (Simulation time: 11 hr 48 min 48 sec)
Heartbeat CPU 6 instructions: 740000009 cycles: 185012046 heartbeat IPC: 4 cumulative IPC: 4 (Simulation time: 11 hr 48 min 48 sec)
Heartbeat CPU 7 instructions: 740000020 cycles: 185012193 heartbeat IPC: 4 cumulative IPC: 4 (Simulation time: 11 hr 48 min 48 sec)
Heartbeat CPU 2 instructions: 740000013 cycles: 185014766 heartbeat IPC: 4 cumulative IPC: 4 (Simulation time: 11 hr 48 min 48 sec)
Heartbeat CPU 1 instructions: 260000031 cycles: 186384112 heartbeat IPC: 0.1893 cumulative IPC: 0.2009 (Simulation time: 11 hr 53 min 45 sec)
Heartbeat CPU 3 instructions: 750000028 cycles: 187511730 heartbeat IPC: 4 cumulative IPC: 4 (Simulation time: 11 hr 57 min 46 sec)
Heartbeat CPU 5 instructions: 750000009 cycles: 187511767 heartbeat IPC: 4 cumulative IPC: 4 (Simulation time: 11 hr 57 min 46 sec)
Heartbeat CPU 4 instructions: 750000014 cycles: 187511783 heartbeat IPC: 4 cumulative IPC: 4 (Simulation time: 11 hr 57 min 46 sec)
Heartbeat CPU 6 instructions: 750000009 cycles: 187512046 heartbeat IPC: 4 cumulative IPC: 4 (Simulation time: 11 hr 57 min 47 sec)
Heartbeat CPU 7 instructions: 750000020 cycles: 187512193 heartbeat IPC: 4 cumulative IPC: 4 (Simulation time: 11 hr 57 min 47 sec)
Heartbeat CPU 2 instructions: 750000013 cycles: 187514766 heartbeat IPC: 4 cumulative IPC: 4 (Simulation time: 11 hr 57 min 47 sec)
Heartbeat CPU 3 instructions: 760000028 cycles: 190011730 heartbeat IPC: 4 cumulative IPC: 4 (Simulation time: 12 hr 06 min 50 sec)
Heartbeat CPU 5 instructions: 760000009 cycles: 190011767 heartbeat IPC: 4 cumulative IPC: 4 (Simulation time: 12 hr 06 min 50 sec)
Heartbeat CPU 4 instructions: 760000014 cycles: 190011783 heartbeat IPC: 4 cumulative IPC: 4 (Simulation time: 12 hr 06 min 50 sec)
Heartbeat CPU 6 instructions: 760000009 cycles: 190012046 heartbeat IPC: 4 cumulative IPC: 4 (Simulation time: 12 hr 06 min 50 sec)
Heartbeat CPU 7 instructions: 760000020 cycles: 190012193 heartbeat IPC: 4 cumulative IPC: 4 (Simulation time: 12 hr 06 min 50 sec)
Heartbeat CPU 2 instructions: 760000013 cycles: 190014766 heartbeat IPC: 4 cumulative IPC: 4 (Simulation time: 12 hr 06 min 51 sec)
*** Reached end of trace: (2, "traces/ocean_8t/ocean2.champsimtrace")
*** Reached end of trace: (5, "traces/ocean_8t/ocean5.champsimtrace")
*** Reached end of trace: (4, "traces/ocean_8t/ocean4.champsimtrace")
*** Reached end of trace: (6, "traces/ocean_8t/ocean6.champsimtrace")
Heartbeat CPU 3 instructions: 770000028 cycles: 192511730 heartbeat IPC: 4 cumulative IPC: 4 (Simulation time: 12 hr 16 min 00 sec)
Heartbeat CPU 5 instructions: 770000009 cycles: 192511788 heartbeat IPC: 4 cumulative IPC: 4 (Simulation time: 12 hr 16 min 00 sec)
Heartbeat CPU 4 instructions: 770000015 cycles: 192511816 heartbeat IPC: 4 cumulative IPC: 4 (Simulation time: 12 hr 16 min 00 sec)
Heartbeat CPU 6 instructions: 770000010 cycles: 192512079 heartbeat IPC: 4 cumulative IPC: 4 (Simulation time: 12 hr 16 min 00 sec)
Heartbeat CPU 7 instructions: 770000020 cycles: 192512193 heartbeat IPC: 4 cumulative IPC: 4 (Simulation time: 12 hr 16 min 00 sec)
Heartbeat CPU 2 instructions: 770000014 cycles: 192514809 heartbeat IPC: 4 cumulative IPC: 4 (Simulation time: 12 hr 16 min 01 sec)
*** Reached end of trace: (3, "traces/ocean_8t/ocean3.champsimtrace")
*** Reached end of trace: (7, "traces/ocean_8t/ocean7.champsimtrace")
Heartbeat CPU 3 instructions: 780000031 cycles: 195011745 heartbeat IPC: 4 cumulative IPC: 4 (Simulation time: 12 hr 25 min 13 sec)
Heartbeat CPU 5 instructions: 780000009 cycles: 195011788 heartbeat IPC: 4 cumulative IPC: 4 (Simulation time: 12 hr 25 min 13 sec)
Heartbeat CPU 4 instructions: 780000015 cycles: 195011816 heartbeat IPC: 4 cumulative IPC: 4 (Simulation time: 12 hr 25 min 13 sec)
Heartbeat CPU 6 instructions: 780000010 cycles: 195012079 heartbeat IPC: 4 cumulative IPC: 4 (Simulation time: 12 hr 25 min 13 sec)
Heartbeat CPU 7 instructions: 780000022 cycles: 195012225 heartbeat IPC: 4 cumulative IPC: 4 (Simulation time: 12 hr 25 min 13 sec)
Heartbeat CPU 2 instructions: 780000014 cycles: 195014809 heartbeat IPC: 4 cumulative IPC: 4 (Simulation time: 12 hr 25 min 14 sec)
Heartbeat CPU 3 instructions: 790000031 cycles: 197511745 heartbeat IPC: 4 cumulative IPC: 4 (Simulation time: 12 hr 34 min 31 sec)
Heartbeat CPU 5 instructions: 790000009 cycles: 197511788 heartbeat IPC: 4 cumulative IPC: 4 (Simulation time: 12 hr 34 min 31 sec)
Heartbeat CPU 4 instructions: 790000015 cycles: 197511816 heartbeat IPC: 4 cumulative IPC: 4 (Simulation time: 12 hr 34 min 31 sec)
Heartbeat CPU 6 instructions: 790000010 cycles: 197512079 heartbeat IPC: 4 cumulative IPC: 4 (Simulation time: 12 hr 34 min 31 sec)
Heartbeat CPU 7 instructions: 790000022 cycles: 197512225 heartbeat IPC: 4 cumulative IPC: 4 (Simulation time: 12 hr 34 min 31 sec)
Heartbeat CPU 2 instructions: 790000014 cycles: 197514809 heartbeat IPC: 4 cumulative IPC: 4 (Simulation time: 12 hr 34 min 31 sec)
Heartbeat CPU 3 instructions: 800000031 cycles: 200011745 heartbeat IPC: 4 cumulative IPC: 4 (Simulation time: 12 hr 43 min 51 sec)
Heartbeat CPU 5 instructions: 800000009 cycles: 200011788 heartbeat IPC: 4 cumulative IPC: 4 (Simulation time: 12 hr 43 min 51 sec)
Heartbeat CPU 4 instructions: 800000015 cycles: 200011816 heartbeat IPC: 4 cumulative IPC: 4 (Simulation time: 12 hr 43 min 51 sec)
Heartbeat CPU 6 instructions: 800000010 cycles: 200012079 heartbeat IPC: 4 cumulative IPC: 4 (Simulation time: 12 hr 43 min 51 sec)
Heartbeat CPU 7 instructions: 800000022 cycles: 200012225 heartbeat IPC: 4 cumulative IPC: 4 (Simulation time: 12 hr 43 min 51 sec)
Heartbeat CPU 2 instructions: 800000014 cycles: 200014809 heartbeat IPC: 4 cumulative IPC: 4 (Simulation time: 12 hr 43 min 52 sec)
Heartbeat CPU 3 instructions: 810000031 cycles: 202511745 heartbeat IPC: 4 cumulative IPC: 4 (Simulation time: 12 hr 53 min 06 sec)
Heartbeat CPU 5 instructions: 810000009 cycles: 202511788 heartbeat IPC: 4 cumulative IPC: 4 (Simulation time: 12 hr 53 min 06 sec)
Heartbeat CPU 4 instructions: 810000015 cycles: 202511816 heartbeat IPC: 4 cumulative IPC: 4 (Simulation time: 12 hr 53 min 06 sec)
Heartbeat CPU 6 instructions: 810000010 cycles: 202512079 heartbeat IPC: 4 cumulative IPC: 4 (Simulation time: 12 hr 53 min 06 sec)
Heartbeat CPU 7 instructions: 810000022 cycles: 202512225 heartbeat IPC: 4 cumulative IPC: 4 (Simulation time: 12 hr 53 min 06 sec)
Heartbeat CPU 2 instructions: 810000014 cycles: 202514809 heartbeat IPC: 4 cumulative IPC: 4 (Simulation time: 12 hr 53 min 07 sec)
*** Reached end of trace: (2, "traces/ocean_8t/ocean2.champsimtrace")
*** Reached end of trace: (5, "traces/ocean_8t/ocean5.champsimtrace")
[...]
cpu4->cpu4_ITLB RFO          ACCESS:          0 HIT:          0 MISS:          0 MSHR_MERGE:          0
cpu4->cpu4_ITLB PREFETCH     ACCESS:          0 HIT:          0 MISS:          0 MSHR_MERGE:          0
cpu4->cpu4_ITLB WRITE        ACCESS:          0 HIT:          0 MISS:          0 MSHR_MERGE:          0
cpu4->cpu4_ITLB TRANSLATION  ACCESS:          0 HIT:          0 MISS:          0 MSHR_MERGE:          0
cpu4->cpu4_ITLB PREFETCH REQUESTED:          0 ISSUED:          0 USEFUL:          0 USELESS:          0
cpu4->cpu4_ITLB AVERAGE MISS LATENCY: 3.859 cycles
cpu4_ITLB COHERENCE INVALIDATIONS:          0
cpu4_ITLB COHERENCE WRITE-HIT OTHER-SHARER EVENTS:          0
cpu4_DTLB COHERENCE INVALIDATIONS:          0
cpu4_DTLB COHERENCE WRITE-HIT OTHER-SHARER EVENTS:          0
cpu3->cpu3_STLB TOTAL        ACCESS:       1148 HIT:       1148 MISS:          0 MSHR_MERGE:          0
cpu3->cpu3_STLB LOAD         ACCESS:       1148 HIT:       1148 MISS:          0 MSHR_MERGE:          0
cpu3->cpu3_STLB RFO          ACCESS:          0 HIT:          0 MISS:          0 MSHR_MERGE:          0
cpu3->cpu3_STLB PREFETCH     ACCESS:          0 HIT:          0 MISS:          0 MSHR_MERGE:          0
cpu3->cpu3_STLB WRITE        ACCESS:          0 HIT:          0 MISS:          0 MSHR_MERGE:          0
cpu3->cpu3_STLB TRANSLATION  ACCESS:          0 HIT:          0 MISS:          0 MSHR_MERGE:          0
cpu3->cpu3_STLB PREFETCH REQUESTED:          0 ISSUED:          0 USEFUL:          0 USELESS:          0
cpu3->cpu3_STLB AVERAGE MISS LATENCY: - cycles
cpu3_STLB COHERENCE INVALIDATIONS:          0
cpu3_STLB COHERENCE WRITE-HIT OTHER-SHARER EVENTS:          0
cpu3->cpu3_L2C TOTAL        ACCESS:     112059 HIT:     112059 MISS:          0 MSHR_MERGE:          0
cpu3->cpu3_L2C LOAD         ACCESS:     112059 HIT:     112059 MISS:          0 MSHR_MERGE:          0
cpu3->cpu3_L2C RFO          ACCESS:          0 HIT:          0 MISS:          0 MSHR_MERGE:          0
cpu3->cpu3_L2C PREFETCH     ACCESS:          0 HIT:          0 MISS:          0 MSHR_MERGE:          0
cpu3->cpu3_L2C WRITE        ACCESS:          0 HIT:          0 MISS:          0 MSHR_MERGE:          0
cpu3->cpu3_L2C TRANSLATION  ACCESS:          0 HIT:          0 MISS:          0 MSHR_MERGE:          0
cpu3->cpu3_L2C PREFETCH REQUESTED:          0 ISSUED:          0 USEFUL:          0 USELESS:          0
cpu3->cpu3_L2C AVERAGE MISS LATENCY: - cycles
cpu3_L2C COHERENCE INVALIDATIONS:          0
cpu3_L2C COHERENCE WRITE-HIT OTHER-SHARER EVENTS:          0
cpu3->cpu3_L1I TOTAL        ACCESS:  511099089 HIT:  510931057 MISS:     168032 MSHR_MERGE:      55973
cpu3->cpu3_L1I LOAD         ACCESS:  511099089 HIT:  510931057 MISS:     168032 MSHR_MERGE:      55973
cpu3->cpu3_L1I RFO          ACCESS:          0 HIT:          0 MISS:          0 MSHR_MERGE:          0
cpu3->cpu3_L1I PREFETCH     ACCESS:          0 HIT:          0 MISS:          0 MSHR_MERGE:          0
cpu3->cpu3_L1I WRITE        ACCESS:          0 HIT:          0 MISS:          0 MSHR_MERGE:          0
cpu3->cpu3_L1I TRANSLATION  ACCESS:          0 HIT:          0 MISS:          0 MSHR_MERGE:          0
cpu3->cpu3_L1I PREFETCH REQUESTED:          0 ISSUED:          0 USEFUL:          0 USELESS:          0
cpu3->cpu3_L1I AVERAGE MISS LATENCY: 7 cycles
cpu3_L1I COHERENCE INVALIDATIONS:          0
cpu3_L1I COHERENCE WRITE-HIT OTHER-SHARER EVENTS:          0
cpu3_L1D COHERENCE INVALIDATIONS:          0
cpu3_L1D COHERENCE WRITE-HIT OTHER-SHARER EVENTS:          0
cpu3->cpu3_ITLB TOTAL        ACCESS:  404748630 HIT:  404746479 MISS:       2151 MSHR_MERGE:       1003
cpu3->cpu3_ITLB LOAD         ACCESS:  404748630 HIT:  404746479 MISS:       2151 MSHR_MERGE:       1003
cpu3->cpu3_ITLB RFO          ACCESS:          0 HIT:          0 MISS:          0 MSHR_MERGE:          0
cpu3->cpu3_ITLB PREFETCH     ACCESS:          0 HIT:          0 MISS:          0 MSHR_MERGE:          0
cpu3->cpu3_ITLB WRITE        ACCESS:          0 HIT:          0 MISS:          0 MSHR_MERGE:          0
cpu3->cpu3_ITLB TRANSLATION  ACCESS:          0 HIT:          0 MISS:          0 MSHR_MERGE:          0
cpu3->cpu3_ITLB PREFETCH REQUESTED:          0 ISSUED:          0 USEFUL:          0 USELESS:          0
cpu3->cpu3_ITLB AVERAGE MISS LATENCY: 4 cycles
cpu3_ITLB COHERENCE INVALIDATIONS:          0
cpu3_ITLB COHERENCE WRITE-HIT OTHER-SHARER EVENTS:          0
cpu3_DTLB COHERENCE INVALIDATIONS:          0
cpu3_DTLB COHERENCE WRITE-HIT OTHER-SHARER EVENTS:          0
cpu2->cpu2_STLB TOTAL        ACCESS:       1152 HIT:       1152 MISS:          0 MSHR_MERGE:          0
cpu2->cpu2_STLB LOAD         ACCESS:       1152 HIT:       1152 MISS:          0 MSHR_MERGE:          0
cpu2->cpu2_STLB RFO          ACCESS:          0 HIT:          0 MISS:          0 MSHR_MERGE:          0
cpu2->cpu2_STLB PREFETCH     ACCESS:          0 HIT:          0 MISS:          0 MSHR_MERGE:          0
cpu2->cpu2_STLB WRITE        ACCESS:          0 HIT:          0 MISS:          0 MSHR_MERGE:          0
cpu2->cpu2_STLB TRANSLATION  ACCESS:          0 HIT:          0 MISS:          0 MSHR_MERGE:          0
cpu2->cpu2_STLB PREFETCH REQUESTED:          0 ISSUED:          0 USEFUL:          0 USELESS:          0
cpu2->cpu2_STLB AVERAGE MISS LATENCY: - cycles
cpu2_STLB COHERENCE INVALIDATIONS:          0
cpu2_STLB COHERENCE WRITE-HIT OTHER-SHARER EVENTS:          0
cpu2->cpu2_L2C TOTAL        ACCESS:     119384 HIT:     119384 MISS:          0 MSHR_MERGE:          0
cpu2->cpu2_L2C LOAD         ACCESS:     119384 HIT:     119384 MISS:          0 MSHR_MERGE:          0
cpu2->cpu2_L2C RFO          ACCESS:          0 HIT:          0 MISS:          0 MSHR_MERGE:          0
cpu2->cpu2_L2C PREFETCH     ACCESS:          0 HIT:          0 MISS:          0 MSHR_MERGE:          0
cpu2->cpu2_L2C WRITE        ACCESS:          0 HIT:          0 MISS:          0 MSHR_MERGE:          0
cpu2->cpu2_L2C TRANSLATION  ACCESS:          0 HIT:          0 MISS:          0 MSHR_MERGE:          0
cpu2->cpu2_L2C PREFETCH REQUESTED:          0 ISSUED:          0 USEFUL:          0 USELESS:          0
cpu2->cpu2_L2C AVERAGE MISS LATENCY: - cycles
cpu2_L2C COHERENCE INVALIDATIONS:          0
cpu2_L2C COHERENCE WRITE-HIT OTHER-SHARER EVENTS:          0
cpu2->cpu2_L1I TOTAL        ACCESS:  466922959 HIT:  466751477 MISS:     171482 MSHR_MERGE:      52098
cpu2->cpu2_L1I LOAD         ACCESS:  466922959 HIT:  466751477 MISS:     171482 MSHR_MERGE:      52098
cpu2->cpu2_L1I RFO          ACCESS:          0 HIT:          0 MISS:          0 MSHR_MERGE:          0
cpu2->cpu2_L1I PREFETCH     ACCESS:          0 HIT:          0 MISS:          0 MSHR_MERGE:          0
cpu2->cpu2_L1I WRITE        ACCESS:          0 HIT:          0 MISS:          0 MSHR_MERGE:          0
cpu2->cpu2_L1I TRANSLATION  ACCESS:          0 HIT:          0 MISS:          0 MSHR_MERGE:          0
cpu2->cpu2_L1I PREFETCH REQUESTED:          0 ISSUED:          0 USEFUL:          0 USELESS:          0
cpu2->cpu2_L1I AVERAGE MISS LATENCY: 7 cycles
cpu2_L1I COHERENCE INVALIDATIONS:          0
cpu2_L1I COHERENCE WRITE-HIT OTHER-SHARER EVENTS:          0
cpu2_L1D COHERENCE INVALIDATIONS:          0
cpu2_L1D COHERENCE WRITE-HIT OTHER-SHARER EVENTS:          0
cpu2->cpu2_ITLB TOTAL        ACCESS:  375545937 HIT:  375543993 MISS:       1944 MSHR_MERGE:        792
cpu2->cpu2_ITLB LOAD         ACCESS:  375545937 HIT:  375543993 MISS:       1944 MSHR_MERGE:        792
cpu2->cpu2_ITLB RFO          ACCESS:          0 HIT:          0 MISS:          0 MSHR_MERGE:          0
cpu2->cpu2_ITLB PREFETCH     ACCESS:          0 HIT:          0 MISS:          0 MSHR_MERGE:          0
cpu2->cpu2_ITLB WRITE        ACCESS:          0 HIT:          0 MISS:          0 MSHR_MERGE:          0
cpu2->cpu2_ITLB TRANSLATION  ACCESS:          0 HIT:          0 MISS:          0 MSHR_MERGE:          0
cpu2->cpu2_ITLB PREFETCH REQUESTED:          0 ISSUED:          0 USEFUL:          0 USELESS:          0
cpu2->cpu2_ITLB AVERAGE MISS LATENCY: 4 cycles
cpu2_ITLB COHERENCE INVALIDATIONS:          0
cpu2_ITLB COHERENCE WRITE-HIT OTHER-SHARER EVENTS:          0
cpu2_DTLB COHERENCE INVALIDATIONS:          0
cpu2_DTLB COHERENCE WRITE-HIT OTHER-SHARER EVENTS:          0
cpu1->cpu1_STLB TOTAL        ACCESS:     936731 HIT:     905387 MISS:      31344 MSHR_MERGE:          0
cpu1->cpu1_STLB LOAD         ACCESS:     936731 HIT:     905387 MISS:      31344 MSHR_MERGE:          0
cpu1->cpu1_STLB RFO          ACCESS:          0 HIT:          0 MISS:          0 MSHR_MERGE:          0
cpu1->cpu1_STLB PREFETCH     ACCESS:          0 HIT:          0 MISS:          0 MSHR_MERGE:          0
cpu1->cpu1_STLB WRITE        ACCESS:          0 HIT:          0 MISS:          0 MSHR_MERGE:          0
cpu1->cpu1_STLB TRANSLATION  ACCESS:          0 HIT:          0 MISS:          0 MSHR_MERGE:          0
cpu1->cpu1_STLB PREFETCH REQUESTED:          0 ISSUED:          0 USEFUL:          0 USELESS:          0
cpu1->cpu1_STLB AVERAGE MISS LATENCY: 520.9 cycles
cpu1_STLB COHERENCE INVALIDATIONS:          0
cpu1_STLB COHERENCE WRITE-HIT OTHER-SHARER EVENTS:          0
cpu1->cpu1_L2C TOTAL        ACCESS:   13291053 HIT:    5444523 MISS:    7846530 MSHR_MERGE:          0
cpu1->cpu1_L2C LOAD         ACCESS:   13242401 HIT:    5444523 MISS:    7797878 MSHR_MERGE:          0
cpu1->cpu1_L2C RFO          ACCESS:          0 HIT:          0 MISS:          0 MSHR_MERGE:          0
cpu1->cpu1_L2C PREFETCH     ACCESS:          0 HIT:          0 MISS:          0 MSHR_MERGE:          0
cpu1->cpu1_L2C WRITE        ACCESS:          0 HIT:          0 MISS:          0 MSHR_MERGE:          0
cpu1->cpu1_L2C TRANSLATION  ACCESS:      48652 HIT:          0 MISS:      48652 MSHR_MERGE:          0
cpu1->cpu1_L2C PREFETCH REQUESTED:          0 ISSUED:          0 USEFUL:          0 USELESS:          0
cpu1->cpu1_L2C AVERAGE MISS LATENCY: 320 cycles
cpu1_L2C COHERENCE INVALIDATIONS:          0
cpu1_L2C COHERENCE WRITE-HIT OTHER-SHARER EVENTS:          0
cpu1->cpu1_L1I TOTAL        ACCESS:   49850656 HIT:   34697563 MISS:   15153093 MSHR_MERGE:    1910692
cpu1->cpu1_L1I LOAD         ACCESS:   49850656 HIT:   34697563 MISS:   15153093 MSHR_MERGE:    1910692
cpu1->cpu1_L1I RFO          ACCESS:          0 HIT:          0 MISS:          0 MSHR_MERGE:          0
cpu1->cpu1_L1I PREFETCH     ACCESS:          0 HIT:          0 MISS:          0 MSHR_MERGE:          0
cpu1->cpu1_L1I WRITE        ACCESS:          0 HIT:          0 MISS:          0 MSHR_MERGE:          0
cpu1->cpu1_L1I TRANSLATION  ACCESS:          0 HIT:          0 MISS:          0 MSHR_MERGE:          0
cpu1->cpu1_L1I PREFETCH REQUESTED:          0 ISSUED:          0 USEFUL:          0 USELESS:          0
cpu1->cpu1_L1I AVERAGE MISS LATENCY: 196 cycles
cpu1_L1I COHERENCE INVALIDATIONS:          0
cpu1_L1I COHERENCE WRITE-HIT OTHER-SHARER EVENTS:          0
cpu1->cpu1_L1D TOTAL        ACCESS:      62700 HIT:      14048 MISS:      48652 MSHR_MERGE:          0
cpu1->cpu1_L1D LOAD         ACCESS:          0 HIT:          0 MISS:          0 MSHR_MERGE:          0
cpu1->cpu1_L1D RFO          ACCESS:          0 HIT:          0 MISS:          0 MSHR_MERGE:          0
cpu1->cpu1_L1D PREFETCH     ACCESS:          0 HIT:          0 MISS:          0 MSHR_MERGE:          0
cpu1->cpu1_L1D WRITE        ACCESS:          0 HIT:          0 MISS:          0 MSHR_MERGE:          0
cpu1->cpu1_L1D TRANSLATION  ACCESS:      62700 HIT:      14048 MISS:      48652 MSHR_MERGE:          0
cpu1->cpu1_L1D PREFETCH REQUESTED:          0 ISSUED:          0 USEFUL:          0 USELESS:          0
cpu1->cpu1_L1D AVERAGE MISS LATENCY: 328.1 cycles
cpu1_L1D COHERENCE INVALIDATIONS:          0
cpu1_L1D COHERENCE WRITE-HIT OTHER-SHARER EVENTS:          0
cpu1->cpu1_ITLB TOTAL        ACCESS:   48975001 HIT:   47999244 MISS:     975757 MSHR_MERGE:      39026
cpu1->cpu1_ITLB LOAD         ACCESS:   48975001 HIT:   47999244 MISS:     975757 MSHR_MERGE:      39026
cpu1->cpu1_ITLB RFO          ACCESS:          0 HIT:          0 MISS:          0 MSHR_MERGE:          0
cpu1->cpu1_ITLB PREFETCH     ACCESS:          0 HIT:          0 MISS:          0 MSHR_MERGE:          0
cpu1->cpu1_ITLB WRITE        ACCESS:          0 HIT:          0 MISS:          0 MSHR_MERGE:          0
cpu1->cpu1_ITLB TRANSLATION  ACCESS:          0 HIT:          0 MISS:          0 MSHR_MERGE:          0
cpu1->cpu1_ITLB PREFETCH REQUESTED:          0 ISSUED:          0 USEFUL:          0 USELESS:          0
cpu1->cpu1_ITLB AVERAGE MISS LATENCY: 21.46 cycles
cpu1_ITLB COHERENCE INVALIDATIONS:          0
cpu1_ITLB COHERENCE WRITE-HIT OTHER-SHARER EVENTS:          0
cpu1_DTLB COHERENCE INVALIDATIONS:          0
cpu1_DTLB COHERENCE WRITE-HIT OTHER-SHARER EVENTS:          0
cpu0->cpu0_STLB TOTAL        ACCESS:    4704538 HIT:    4556997 MISS:     147541 MSHR_MERGE:          0
cpu0->cpu0_STLB LOAD         ACCESS:    4704538 HIT:    4556997 MISS:     147541 MSHR_MERGE:          0
cpu0->cpu0_STLB RFO          ACCESS:          0 HIT:          0 MISS:          0 MSHR_MERGE:          0
cpu0->cpu0_STLB PREFETCH     ACCESS:          0 HIT:          0 MISS:          0 MSHR_MERGE:          0
cpu0->cpu0_STLB WRITE        ACCESS:          0 HIT:          0 MISS:          0 MSHR_MERGE:          0
cpu0->cpu0_STLB TRANSLATION  ACCESS:          0 HIT:          0 MISS:          0 MSHR_MERGE:          0
cpu0->cpu0_STLB PREFETCH REQUESTED:          0 ISSUED:          0 USEFUL:          0 USELESS:          0
cpu0->cpu0_STLB AVERAGE MISS LATENCY: 627.4 cycles
cpu0_STLB COHERENCE INVALIDATIONS:          0
cpu0_STLB COHERENCE WRITE-HIT OTHER-SHARER EVENTS:          0
cpu0->cpu0_L2C TOTAL        ACCESS:   32509777 HIT:   14794141 MISS:   17715636 MSHR_MERGE:          0
cpu0->cpu0_L2C LOAD         ACCESS:   21223864 HIT:    6698624 MISS:   14525240 MSHR_MERGE:          0
cpu0->cpu0_L2C RFO          ACCESS:    3449565 HIT:     492466 MISS:    2957099 MSHR_MERGE:          0
cpu0->cpu0_L2C PREFETCH     ACCESS:          0 HIT:          0 MISS:          0 MSHR_MERGE:          0
cpu0->cpu0_L2C WRITE        ACCESS:    7564174 HIT:    7563361 MISS:        813 MSHR_MERGE:          0
cpu0->cpu0_L2C TRANSLATION  ACCESS:     272174 HIT:      39690 MISS:     232484 MSHR_MERGE:          0
cpu0->cpu0_L2C PREFETCH REQUESTED:          0 ISSUED:          0 USEFUL:          0 USELESS:          0
cpu0->cpu0_L2C AVERAGE MISS LATENCY: 305.7 cycles
cpu0_L2C COHERENCE INVALIDATIONS:          0
cpu0_L2C COHERENCE WRITE-HIT OTHER-SHARER EVENTS:          0
cpu0->cpu0_L1I TOTAL        ACCESS:   31445625 HIT:   31433563 MISS:      12062 MSHR_MERGE:       5834
cpu0->cpu0_L1I LOAD         ACCESS:   31445625 HIT:   31433563 MISS:      12062 MSHR_MERGE:       5834
cpu0->cpu0_L1I RFO          ACCESS:          0 HIT:          0 MISS:          0 MSHR_MERGE:          0
cpu0->cpu0_L1I PREFETCH     ACCESS:          0 HIT:          0 MISS:          0 MSHR_MERGE:          0
cpu0->cpu0_L1I WRITE        ACCESS:          0 HIT:          0 MISS:          0 MSHR_MERGE:          0
cpu0->cpu0_L1I TRANSLATION  ACCESS:          0 HIT:          0 MISS:          0 MSHR_MERGE:          0
cpu0->cpu0_L1I PREFETCH REQUESTED:          0 ISSUED:          0 USEFUL:          0 USELESS:          0
cpu0->cpu0_L1I AVERAGE MISS LATENCY: 283.7 cycles
cpu0_L1I COHERENCE INVALIDATIONS:          0
cpu0_L1I COHERENCE WRITE-HIT OTHER-SHARER EVENTS:          0
cpu0->cpu0_L1D TOTAL        ACCESS:  102773281 HIT:   73937591 MISS:   28835690 MSHR_MERGE:    3895061
cpu0->cpu0_L1D LOAD         ACCESS:   44172885 HIT:   21983732 MISS:   22189153 MSHR_MERGE:     971250
cpu0->cpu0_L1D RFO          ACCESS:          0 HIT:          0 MISS:          0 MSHR_MERGE:          0
cpu0->cpu0_L1D PREFETCH     ACCESS:          0 HIT:          0 MISS:          0 MSHR_MERGE:          0
cpu0->cpu0_L1D WRITE        ACCESS:   58300169 HIT:   51931117 MISS:    6369052 MSHR_MERGE:    2918500
cpu0->cpu0_L1D TRANSLATION  ACCESS:     300227 HIT:      22742 MISS:     277485 MSHR_MERGE:       5311
cpu0->cpu0_L1D PREFETCH REQUESTED:          0 ISSUED:          0 USEFUL:          0 USELESS:          0
cpu0->cpu0_L1D AVERAGE MISS LATENCY: 224.8 cycles
cpu0_L1D COHERENCE INVALIDATIONS:          0
cpu0_L1D COHERENCE WRITE-HIT OTHER-SHARER EVENTS:          0
cpu0->cpu0_ITLB TOTAL        ACCESS:   30300228 HIT:   30299162 MISS:       1066 MSHR_MERGE:        717
cpu0->cpu0_ITLB LOAD         ACCESS:   30300228 HIT:   30299162 MISS:       1066 MSHR_MERGE:        717
cpu0->cpu0_ITLB RFO          ACCESS:          0 HIT:          0 MISS:          0 MSHR_MERGE:          0
cpu0->cpu0_ITLB PREFETCH     ACCESS:          0 HIT:          0 MISS:          0 MSHR_MERGE:          0
cpu0->cpu0_ITLB WRITE        ACCESS:          0 HIT:          0 MISS:          0 MSHR_MERGE:          0
cpu0->cpu0_ITLB TRANSLATION  ACCESS:          0 HIT:          0 MISS:          0 MSHR_MERGE:          0
cpu0->cpu0_ITLB PREFETCH REQUESTED:          0 ISSUED:          0 USEFUL:          0 USELESS:          0
cpu0->cpu0_ITLB AVERAGE MISS LATENCY: 479.2 cycles
cpu0_ITLB COHERENCE INVALIDATIONS:          0
cpu0_ITLB COHERENCE WRITE-HIT OTHER-SHARER EVENTS:          0
cpu0->cpu0_DTLB TOTAL        ACCESS:   99253469 HIT:   94353784 MISS:    4899685 MSHR_MERGE:     195496
cpu0->cpu0_DTLB LOAD         ACCESS:   99253469 HIT:   94353784 MISS:    4899685 MSHR_MERGE:     195496
cpu0->cpu0_DTLB RFO          ACCESS:          0 HIT:          0 MISS:          0 MSHR_MERGE:          0
cpu0->cpu0_DTLB PREFETCH     ACCESS:          0 HIT:          0 MISS:          0 MSHR_MERGE:          0
cpu0->cpu0_DTLB WRITE        ACCESS:          0 HIT:          0 MISS:          0 MSHR_MERGE:          0
cpu0->cpu0_DTLB TRANSLATION  ACCESS:          0 HIT:          0 MISS:          0 MSHR_MERGE:          0
cpu0->cpu0_DTLB PREFETCH REQUESTED:          0 ISSUED:          0 USEFUL:          0 USELESS:          0
cpu0->cpu0_DTLB AVERAGE MISS LATENCY: 23.67 cycles
cpu0_DTLB COHERENCE INVALIDATIONS:          0
cpu0_DTLB COHERENCE WRITE-HIT OTHER-SHARER EVENTS:          0
cpu0->LLC TOTAL        ACCESS:   24135492 HIT:    2044081 MISS:   22091411 MSHR_MERGE:        534
cpu0->LLC LOAD         ACCESS:   14525235 HIT:    1359768 MISS:   13165467 MSHR_MERGE:        473
cpu0->LLC RFO          ACCESS:    2957099 HIT:     223768 MISS:    2733331 MSHR_MERGE:         61
cpu0->LLC PREFETCH     ACCESS:          0 HIT:          0 MISS:          0 MSHR_MERGE:          0
cpu0->LLC WRITE        ACCESS:    6420674 HIT:     444558 MISS:    5976116 MSHR_MERGE:          0
cpu0->LLC TRANSLATION  ACCESS:     232484 HIT:      15987 MISS:     216497 MSHR_MERGE:          0
cpu0->LLC PREFETCH REQUESTED:          0 ISSUED:          0 USEFUL:          0 USELESS:          0
cpu0->LLC AVERAGE MISS LATENCY: 342.8 cycles
cpu1->LLC TOTAL        ACCESS:    7846530 HIT:     643586 MISS:    7202944 MSHR_MERGE:        536
cpu1->LLC LOAD         ACCESS:    7797878 HIT:     640388 MISS:    7157490 MSHR_MERGE:        536
cpu1->LLC RFO          ACCESS:          0 HIT:          0 MISS:          0 MSHR_MERGE:          0
cpu1->LLC PREFETCH     ACCESS:          0 HIT:          0 MISS:          0 MSHR_MERGE:          0
cpu1->LLC WRITE        ACCESS:          0 HIT:          0 MISS:          0 MSHR_MERGE:          0
cpu1->LLC TRANSLATION  ACCESS:      48652 HIT:       3198 MISS:      45454 MSHR_MERGE:          0
cpu1->LLC PREFETCH REQUESTED:          0 ISSUED:          0 USEFUL:          0 USELESS:          0
cpu1->LLC AVERAGE MISS LATENCY: 1051 cycles
LLC COHERENCE INVALIDATIONS:      53589
LLC COHERENCE WRITE-HIT OTHER-SHARER EVENTS:      53589

DRAM Statistics

Channel 0 RQ ROW_BUFFER_HIT:     634187
  ROW_BUFFER_MISS:   22643243
  AVG DBUS CONGESTED CYCLE: 6.717
Channel 0 WQ ROW_BUFFER_HIT:     520613
  ROW_BUFFER_MISS:    5877200
  FULL:          0
Channel 0 REFRESHES ISSUED:      67892

VMEM ALIASED FILLS (cross-CPU shared-page hits): 91165
