[VMEM] WARNING: physical memory size is smaller than virtual memory size.

*** ChampSim Multicore Out-of-Order Simulator ***
Warmup Instructions: 50000000
Simulation Instructions: 100000000
Number of CPUs: 8
Page size: 4096

Off-chip DRAM Size: 16 GiB Channels: 1 Width: 64-bit Data Rate: 3205 MT/s
Heartbeat CPU 4 instructions: 10000001 cycles: 2509177 heartbeat IPC: 3.985 cumulative IPC: 3.985 (Simulation time: 00 hr 10 min 41 sec)
Heartbeat CPU 5 instructions: 10000003 cycles: 2509276 heartbeat IPC: 3.985 cumulative IPC: 3.985 (Simulation time: 00 hr 10 min 41 sec)
Heartbeat CPU 3 instructions: 10000003 cycles: 2509387 heartbeat IPC: 3.985 cumulative IPC: 3.985 (Simulation time: 00 hr 10 min 41 sec)
Heartbeat CPU 6 instructions: 10000000 cycles: 2509599 heartbeat IPC: 3.985 cumulative IPC: 3.985 (Simulation time: 00 hr 10 min 41 sec)
Heartbeat CPU 7 instructions: 10000002 cycles: 2509727 heartbeat IPC: 3.984 cumulative IPC: 3.984 (Simulation time: 00 hr 10 min 41 sec)
Heartbeat CPU 2 instructions: 10000001 cycles: 2510814 heartbeat IPC: 3.983 cumulative IPC: 3.983 (Simulation time: 00 hr 10 min 41 sec)
Heartbeat CPU 1 instructions: 10000001 cycles: 4694720 heartbeat IPC: 2.13 cumulative IPC: 2.13 (Simulation time: 00 hr 19 min 52 sec)
Heartbeat CPU 4 instructions: 20000004 cycles: 5009522 heartbeat IPC: 3.999 cumulative IPC: 3.992 (Simulation time: 00 hr 21 min 13 sec)
Heartbeat CPU 3 instructions: 20000004 cycles: 5009602 heartbeat IPC: 4 cumulative IPC: 3.992 (Simulation time: 00 hr 21 min 13 sec)
Heartbeat CPU 5 instructions: 20000006 cycles: 5009614 heartbeat IPC: 3.999 cumulative IPC: 3.992 (Simulation time: 00 hr 21 min 13 sec)
Heartbeat CPU 6 instructions: 20000001 cycles: 5009819 heartbeat IPC: 4 cumulative IPC: 3.992 (Simulation time: 00 hr 21 min 13 sec)
Heartbeat CPU 7 instructions: 20000003 cycles: 5009948 heartbeat IPC: 4 cumulative IPC: 3.992 (Simulation time: 00 hr 21 min 14 sec)
Heartbeat CPU 2 instructions: 20000003 cycles: 5011656 heartbeat IPC: 3.999 cumulative IPC: 3.991 (Simulation time: 00 hr 21 min 14 sec)
Heartbeat CPU 4 instructions: 30000004 cycles: 7509522 heartbeat IPC: 4 cumulative IPC: 3.995 (Simulation time: 00 hr 31 min 57 sec)
Heartbeat CPU 3 instructions: 30000004 cycles: 7509602 heartbeat IPC: 4 cumulative IPC: 3.995 (Simulation time: 00 hr 31 min 57 sec)
Heartbeat CPU 5 instructions: 30000006 cycles: 7509614 heartbeat IPC: 4 cumulative IPC: 3.995 (Simulation time: 00 hr 31 min 57 sec)
Heartbeat CPU 6 instructions: 30000001 cycles: 7509819 heartbeat IPC: 4 cumulative IPC: 3.995 (Simulation time: 00 hr 31 min 57 sec)
Heartbeat CPU 7 instructions: 30000003 cycles: 7509948 heartbeat IPC: 4 cumulative IPC: 3.995 (Simulation time: 00 hr 31 min 57 sec)
Heartbeat CPU 2 instructions: 30000003 cycles: 7511656 heartbeat IPC: 4 cumulative IPC: 3.994 (Simulation time: 00 hr 31 min 57 sec)
Heartbeat CPU 1 instructions: 20000001 cycles: 9264505 heartbeat IPC: 2.188 cumulative IPC: 2.159 (Simulation time: 00 hr 39 min 40 sec)
Heartbeat CPU 4 instructions: 40000004 cycles: 10009522 heartbeat IPC: 4 cumulative IPC: 3.996 (Simulation time: 00 hr 42 min 56 sec)
Heartbeat CPU 3 instructions: 40000004 cycles: 10009602 heartbeat IPC: 4 cumulative IPC: 3.996 (Simulation time: 00 hr 42 min 56 sec)
Heartbeat CPU 5 instructions: 40000006 cycles: 10009614 heartbeat IPC: 4 cumulative IPC: 3.996 (Simulation time: 00 hr 42 min 56 sec)
Heartbeat CPU 6 instructions: 40000001 cycles: 10009819 heartbeat IPC: 4 cumulative IPC: 3.996 (Simulation time: 00 hr 42 min 56 sec)
Heartbeat CPU 7 instructions: 40000003 cycles: 10009948 heartbeat IPC: 4 cumulative IPC: 3.996 (Simulation time: 00 hr 42 min 56 sec)
Heartbeat CPU 2 instructions: 40000003 cycles: 10011656 heartbeat IPC: 4 cumulative IPC: 3.995 (Simulation time: 00 hr 42 min 57 sec)
*** Reached end of trace: (2, "traces/ocean_8t/ocean2.champsimtrace")
*** Reached end of trace: (5, "traces/ocean_8t/ocean5.champsimtrace")
*** Reached end of trace: (4, "traces/ocean_8t/ocean4.champsimtrace")
*** Reached end of trace: (6, "traces/ocean_8t/ocean6.champsimtrace")
*** Reached end of trace: (3, "traces/ocean_8t/ocean3.champsimtrace")
*** Reached end of trace: (7, "traces/ocean_8t/ocean7.champsimtrace")
Warmup finished CPU 4 instructions: 50000002 cycles: 12511532 cumulative IPC: 3.996 (Simulation time: 00 hr 53 min 39 sec)
Heartbeat CPU 4 instructions: 50000006 cycles: 12511533 heartbeat IPC: 3.997 cumulative IPC: 3.996 (Simulation time: 00 hr 53 min 39 sec)
Warmup finished CPU 3 instructions: 50000000 cycles: 12511601 cumulative IPC: 3.996 (Simulation time: 00 hr 53 min 39 sec)
Heartbeat CPU 3 instructions: 50000004 cycles: 12511602 heartbeat IPC: 3.997 cumulative IPC: 3.996 (Simulation time: 00 hr 53 min 39 sec)
Warmup finished CPU 5 instructions: 50000001 cycles: 12511617 cumulative IPC: 3.996 (Simulation time: 00 hr 53 min 39 sec)
Heartbeat CPU 5 instructions: 50000009 cycles: 12511619 heartbeat IPC: 3.997 cumulative IPC: 3.996 (Simulation time: 00 hr 53 min 39 sec)
Heartbeat CPU 6 instructions: 50000003 cycles: 12511821 heartbeat IPC: 3.997 cumulative IPC: 3.996 (Simulation time: 00 hr 53 min 39 sec)
Warmup finished CPU 6 instructions: 50000003 cycles: 12511821 cumulative IPC: 3.996 (Simulation time: 00 hr 53 min 39 sec)
Heartbeat CPU 7 instructions: 50000003 cycles: 12511954 heartbeat IPC: 3.997 cumulative IPC: 3.996 (Simulation time: 00 hr 53 min 39 sec)
Warmup finished CPU 7 instructions: 50000003 cycles: 12511954 cumulative IPC: 3.996 (Simulation time: 00 hr 53 min 39 sec)
Warmup finished CPU 2 instructions: 50000002 cycles: 12514464 cumulative IPC: 3.995 (Simulation time: 00 hr 53 min 40 sec)
Heartbeat CPU 2 instructions: 50000006 cycles: 12514465 heartbeat IPC: 3.996 cumulative IPC: 3.995 (Simulation time: 00 hr 53 min 40 sec)
Heartbeat CPU 1 instructions: 30000002 cycles: 14614002 heartbeat IPC: 1.869 cumulative IPC: 2.053 (Simulation time: 01 hr 02 min 23 sec)
Heartbeat CPU 4 instructions: 60000006 cycles: 15011533 heartbeat IPC: 4 cumulative IPC: 3.997 (Simulation time: 01 hr 04 min 04 sec)
Heartbeat CPU 3 instructions: 60000004 cycles: 15011602 heartbeat IPC: 4 cumulative IPC: 3.997 (Simulation time: 01 hr 04 min 04 sec)
Heartbeat CPU 5 instructions: 60000009 cycles: 15011619 heartbeat IPC: 4 cumulative IPC: 3.997 (Simulation time: 01 hr 04 min 04 sec)
Heartbeat CPU 6 instructions: 60000003 cycles: 15011821 heartbeat IPC: 4 cumulative IPC: 3.997 (Simulation time: 01 hr 04 min 04 sec)
Heartbeat CPU 7 instructions: 60000003 cycles: 15011954 heartbeat IPC: 4 cumulative IPC: 3.997 (Simulation time: 01 hr 04 min 04 sec)
Heartbeat CPU 2 instructions: 60000006 cycles: 15014465 heartbeat IPC: 4 cumulative IPC: 3.996 (Simulation time: 01 hr 04 min 05 sec)
Heartbeat CPU 4 instructions: 70000006 cycles: 17511533 heartbeat IPC: 4 cumulative IPC: 3.997 (Simulation time: 01 hr 14 min 40 sec)
Heartbeat CPU 3 instructions: 70000004 cycles: 17511602 heartbeat IPC: 4 cumulative IPC: 3.997 (Simulation time: 01 hr 14 min 40 sec)
Heartbeat CPU 5 instructions: 70000009 cycles: 17511619 heartbeat IPC: 4 cumulative IPC: 3.997 (Simulation time: 01 hr 14 min 40 sec)
Heartbeat CPU 6 instructions: 70000003 cycles: 17511821 heartbeat IPC: 4 cumulative IPC: 3.997 (Simulation time: 01 hr 14 min 40 sec)
Heartbeat CPU 7 instructions: 70000003 cycles: 17511954 heartbeat IPC: 4 cumulative IPC: 3.997 (Simulation time: 01 hr 14 min 40 sec)
Heartbeat CPU 2 instructions: 70000006 cycles: 17514465 heartbeat IPC: 4 cumulative IPC: 3.997 (Simulation time: 01 hr 14 min 40 sec)
Heartbeat CPU 1 instructions: 40000004 cycles: 18856810 heartbeat IPC: 2.357 cumulative IPC: 2.121 (Simulation time: 01 hr 20 min 18 sec)
Heartbeat CPU 4 instructions: 80000006 cycles: 20011533 heartbeat IPC: 4 cumulative IPC: 3.998 (Simulation time: 01 hr 25 min 25 sec)
Heartbeat CPU 3 instructions: 80000004 cycles: 20011602 heartbeat IPC: 4 cumulative IPC: 3.998 (Simulation time: 01 hr 25 min 25 sec)
Heartbeat CPU 5 instructions: 80000009 cycles: 20011619 heartbeat IPC: 4 cumulative IPC: 3.998 (Simulation time: 01 hr 25 min 25 sec)
Heartbeat CPU 6 instructions: 80000003 cycles: 20011821 heartbeat IPC: 4 cumulative IPC: 3.998 (Simulation time: 01 hr 25 min 25 sec)
Heartbeat CPU 7 instructions: 80000003 cycles: 20011954 heartbeat IPC: 4 cumulative IPC: 3.998 (Simulation time: 01 hr 25 min 25 sec)
Heartbeat CPU 2 instructions: 80000006 cycles: 20014465 heartbeat IPC: 4 cumulative IPC: 3.997 (Simulation time: 01 hr 25 min 26 sec)
*** Reached end of trace: (1, "traces/ocean_8t/ocean1.champsimtrace")
Heartbeat CPU 0 instructions: 10000000 cycles: 20917780 heartbeat IPC: 0.4781 cumulative IPC: 0.4781 (Simulation time: 01 hr 29 min 23 sec)
Heartbeat CPU 4 instructions: 90000006 cycles: 22511533 heartbeat IPC: 4 cumulative IPC: 3.998 (Simulation time: 01 hr 36 min 07 sec)
Heartbeat CPU 3 instructions: 90000004 cycles: 22511602 heartbeat IPC: 4 cumulative IPC: 3.998 (Simulation time: 01 hr 36 min 07 sec)
Heartbeat CPU 5 instructions: 90000009 cycles: 22511619 heartbeat IPC: 4 cumulative IPC: 3.998 (Simulation time: 01 hr 36 min 07 sec)
Heartbeat CPU 6 instructions: 90000003 cycles: 22511821 heartbeat IPC: 4 cumulative IPC: 3.998 (Simulation time: 01 hr 36 min 07 sec)
Heartbeat CPU 7 instructions: 90000003 cycles: 22511954 heartbeat IPC: 4 cumulative IPC: 3.998 (Simulation time: 01 hr 36 min 07 sec)
Heartbeat CPU 2 instructions: 90000006 cycles: 22514465 heartbeat IPC: 4 cumulative IPC: 3.997 (Simulation time: 01 hr 36 min 08 sec)
*** Reached end of trace: (2, "traces/ocean_8t/ocean2.champsimtrace")
*** Reached end of trace: (5, "traces/ocean_8t/ocean5.champsimtrace")
*** Reached end of trace: (4, "traces/ocean_8t/ocean4.champsimtrace")
*** Reached end of trace: (6, "traces/ocean_8t/ocean6.champsimtrace")
*** Reached end of trace: (3, "traces/ocean_8t/ocean3.champsimtrace")
Warmup finished CPU 1 instructions: 50000002 cycles: 22719952 cumulative IPC: 2.201 (Simulation time: 01 hr 37 min 00 sec)
Heartbeat CPU 1 instructions: 50000006 cycles: 22719953 heartbeat IPC: 2.589 cumulative IPC: 2.201 (Simulation time: 01 hr 37 min 00 sec)
*** Reached end of trace: (7, "traces/ocean_8t/ocean7.champsimtrace")
Heartbeat CPU 4 instructions: 100000006 cycles: 25011533 heartbeat IPC: 4 cumulative IPC: 3.998 (Simulation time: 01 hr 46 min 07 sec)
Heartbeat CPU 3 instructions: 100000004 cycles: 25011602 heartbeat IPC: 4 cumulative IPC: 3.998 (Simulation time: 01 hr 46 min 07 sec)
Heartbeat CPU 5 instructions: 100000009 cycles: 25011619 heartbeat IPC: 4 cumulative IPC: 3.998 (Simulation time: 01 hr 46 min 07 sec)
Heartbeat CPU 6 instructions: 100000003 cycles: 25011821 heartbeat IPC: 4 cumulative IPC: 3.998 (Simulation time: 01 hr 46 min 07 sec)
Heartbeat CPU 7 instructions: 100000003 cycles: 25011954 heartbeat IPC: 4 cumulative IPC: 3.998 (Simulation time: 01 hr 46 min 07 sec)
Heartbeat CPU 2 instructions: 100000006 cycles: 25014465 heartbeat IPC: 4 cumulative IPC: 3.998 (Simulation time: 01 hr 46 min 08 sec)
Heartbeat CPU 1 instructions: 60000009 cycles: 26812334 heartbeat IPC: 2.444 cumulative IPC: 2.238 (Simulation time: 01 hr 53 min 06 sec)
Heartbeat CPU 4 instructions: 110000006 cycles: 27511533 heartbeat IPC: 4 cumulative IPC: 3.998 (Simulation time: 01 hr 55 min 47 sec)
Heartbeat CPU 3 instructions: 110000004 cycles: 27511602 heartbeat IPC: 4 cumulative IPC: 3.998 (Simulation time: 01 hr 55 min 47 sec)
Heartbeat CPU 5 instructions: 110000009 cycles: 27511619 heartbeat IPC: 4 cumulative IPC: 3.998 (Simulation time: 01 hr 55 min 48 sec)
Heartbeat CPU 6 instructions: 110000003 cycles: 27511821 heartbeat IPC: 4 cumulative IPC: 3.998 (Simulation time: 01 hr 55 min 48 sec)
Heartbeat CPU 7 instructions: 110000003 cycles: 27511954 heartbeat IPC: 4 cumulative IPC: 3.998 (Simulation time: 01 hr 55 min 48 sec)
Heartbeat CPU 2 instructions: 110000006 cycles: 27514465 heartbeat IPC: 4 cumulative IPC: 3.998 (Simulation time: 01 hr 55 min 48 sec)
Heartbeat CPU 4 instructions: 120000006 cycles: 30011533 heartbeat IPC: 4 cumulative IPC: 3.998 (Simulation time: 02 hr 04 min 46 sec)
Heartbeat CPU 3 instructions: 120000004 cycles: 30011602 heartbeat IPC: 4 cumulative IPC: 3.998 (Simulation time: 02 hr 04 min 46 sec)
Heartbeat CPU 5 instructions: 120000009 cycles: 30011619 heartbeat IPC: 4 cumulative IPC: 3.998 (Simulation time: 02 hr 04 min 46 sec)
Heartbeat CPU 6 instructions: 120000003 cycles: 30011821 heartbeat IPC: 4 cumulative IPC: 3.998 (Simulation time: 02 hr 04 min 46 sec)
Heartbeat CPU 7 instructions: 120000003 cycles: 30011954 heartbeat IPC: 4 cumulative IPC: 3.998 (Simulation time: 02 hr 04 min 46 sec)
Heartbeat CPU 2 instructions: 120000006 cycles: 30014465 heartbeat IPC: 4 cumulative IPC: 3.998 (Simulation time: 02 hr 04 min 47 sec)
Heartbeat CPU 1 instructions: 70000009 cycles: 30982657 heartbeat IPC: 2.398 cumulative IPC: 2.259 (Simulation time: 02 hr 08 min 17 sec)
Heartbeat CPU 4 instructions: 130000006 cycles: 32511533 heartbeat IPC: 4 cumulative IPC: 3.999 (Simulation time: 02 hr 13 min 48 sec)
Heartbeat CPU 3 instructions: 130000004 cycles: 32511602 heartbeat IPC: 4 cumulative IPC: 3.999 (Simulation time: 02 hr 13 min 48 sec)
Heartbeat CPU 5 instructions: 130000009 cycles: 32511619 heartbeat IPC: 4 cumulative IPC: 3.999 (Simulation time: 02 hr 13 min 48 sec)
Heartbeat CPU 6 instructions: 130000003 cycles: 32511821 heartbeat IPC: 4 cumulative IPC: 3.999 (Simulation time: 02 hr 13 min 48 sec)
Heartbeat CPU 7 instructions: 130000003 cycles: 32511954 heartbeat IPC: 4 cumulative IPC: 3.999 (Simulation time: 02 hr 13 min 48 sec)
Heartbeat CPU 2 instructions: 130000006 cycles: 32514465 heartbeat IPC: 4 cumulative IPC: 3.998 (Simulation time: 02 hr 13 min 48 sec)
*** Reached end of trace: (2, "traces/ocean_8t/ocean2.champsimtrace")
*** Reached end of trace: (5, "traces/ocean_8t/ocean5.champsimtrace")
*** Reached end of trace: (4, "traces/ocean_8t/ocean4.champsimtrace")
*** Reached end of trace: (6, "traces/ocean_8t/ocean6.champsimtrace")
*** Reached end of trace: (3, "traces/ocean_8t/ocean3.champsimtrace")
*** Reached end of trace: (7, "traces/ocean_8t/ocean7.champsimtrace")
Heartbeat CPU 4 instructions: 140000006 cycles: 35011533 heartbeat IPC: 4 cumulative IPC: 3.999 (Simulation time: 02 hr 22 min 45 sec)
Heartbeat CPU 3 instructions: 140000004 cycles: 35011602 heartbeat IPC: 4 cumulative IPC: 3.999 (Simulation time: 02 hr 22 min 45 sec)
Heartbeat CPU 5 instructions: 140000009 cycles: 35011619 heartbeat IPC: 4 cumulative IPC: 3.999 (Simulation time: 02 hr 22 min 45 sec)
Heartbeat CPU 6 instructions: 140000003 cycles: 35011821 heartbeat IPC: 4 cumulative IPC: 3.999 (Simulation time: 02 hr 22 min 46 sec)
Heartbeat CPU 7 instructions: 140000003 cycles: 35011954 heartbeat IPC: 4 cumulative IPC: 3.999 (Simulation time: 02 hr 22 min 46 sec)
Heartbeat CPU 2 instructions: 140000006 cycles: 35014465 heartbeat IPC: 4 cumulative IPC: 3.998 (Simulation time: 02 hr 22 min 46 sec)
Heartbeat CPU 1 instructions: 80000009 cycles: 36544734 heartbeat IPC: 1.798 cumulative IPC: 2.189 (Simulation time: 02 hr 28 min 14 sec)
Heartbeat CPU 4 instructions: 150000006 cycles: 37511533 heartbeat IPC: 4 cumulative IPC: 3.999 (Simulation time: 02 hr 31 min 40 sec)
Heartbeat CPU 3 instructions: 150000004 cycles: 37511602 heartbeat IPC: 4 cumulative IPC: 3.999 (Simulation time: 02 hr 31 min 40 sec)
Heartbeat CPU 5 instructions: 150000009 cycles: 37511619 heartbeat IPC: 4 cumulative IPC: 3.999 (Simulation time: 02 hr 31 min 40 sec)
Heartbeat CPU 6 instructions: 150000003 cycles: 37511821 heartbeat IPC: 4 cumulative IPC: 3.999 (Simulation time: 02 hr 31 min 40 sec)
Heartbeat CPU 7 instructions: 150000003 cycles: 37511954 heartbeat IPC: 4 cumulative IPC: 3.999 (Simulation time: 02 hr 31 min 40 sec)
Heartbeat CPU 2 instructions: 150000006 cycles: 37514465 heartbeat IPC: 4 cumulative IPC: 3.998 (Simulation time: 02 hr 31 min 40 sec)
Heartbeat CPU 1 instructions: 90000010 cycles: 39972136 heartbeat IPC: 2.918 cumulative IPC: 2.252 (Simulation time: 02 hr 40 min 57 sec)
Heartbeat CPU 4 instructions: 160000006 cycles: 40011533 heartbeat IPC: 4 cumulative IPC: 3.999 (Simulation time: 02 hr 41 min 06 sec)
Heartbeat CPU 3 instructions: 160000004 cycles: 40011602 heartbeat IPC: 4 cumulative IPC: 3.999 (Simulation time: 02 hr 41 min 06 sec)
Heartbeat CPU 5 instructions: 160000009 cycles: 40011619 heartbeat IPC: 4 cumulative IPC: 3.999 (Simulation time: 02 hr 41 min 06 sec)
Heartbeat CPU 6 instructions: 160000003 cycles: 40011821 heartbeat IPC: 4 cumulative IPC: 3.999 (Simulation time: 02 hr 41 min 06 sec)
Heartbeat CPU 7 instructions: 160000003 cycles: 40011954 heartbeat IPC: 4 cumulative IPC: 3.999 (Simulation time: 02 hr 41 min 06 sec)
Heartbeat CPU 2 instructions: 160000006 cycles: 40014465 heartbeat IPC: 4 cumulative IPC: 3.999 (Simulation time: 02 hr 41 min 07 sec)
*** Reached end of trace: (1, "traces/ocean_8t/ocean1.champsimtrace")
Heartbeat CPU 0 instructions: 20000001 cycles: 42268147 heartbeat IPC: 0.4684 cumulative IPC: 0.4732 (Simulation time: 02 hr 50 min 12 sec)
Heartbeat CPU 4 instructions: 170000006 cycles: 42511533 heartbeat IPC: 4 cumulative IPC: 3.999 (Simulation time: 02 hr 51 min 14 sec)
Heartbeat CPU 3 instructions: 170000004 cycles: 42511602 heartbeat IPC: 4 cumulative IPC: 3.999 (Simulation time: 02 hr 51 min 14 sec)
Heartbeat CPU 5 instructions: 170000009 cycles: 42511619 heartbeat IPC: 4 cumulative IPC: 3.999 (Simulation time: 02 hr 51 min 14 sec)
Heartbeat CPU 6 instructions: 170000003 cycles: 42511821 heartbeat IPC: 4 cumulative IPC: 3.999 (Simulation time: 02 hr 51 min 14 sec)
Heartbeat CPU 7 instructions: 170000003 cycles: 42511954 heartbeat IPC: 4 cumulative IPC: 3.999 (Simulation time: 02 hr 51 min 14 sec)
Heartbeat CPU 2 instructions: 170000006 cycles: 42514465 heartbeat IPC: 4 cumulative IPC: 3.999 (Simulation time: 02 hr 51 min 15 sec)
Heartbeat CPU 1 instructions: 100000013 cycles: 44048190 heartbeat IPC: 2.453 cumulative IPC: 2.27 (Simulation time: 02 hr 57 min 33 sec)
Heartbeat CPU 4 instructions: 180000006 cycles: 45011533 heartbeat IPC: 4 cumulative IPC: 3.999 (Simulation time: 03 hr 01 min 30 sec)
Heartbeat CPU 3 instructions: 180000004 cycles: 45011602 heartbeat IPC: 4 cumulative IPC: 3.999 (Simulation time: 03 hr 01 min 30 sec)
Heartbeat CPU 5 instructions: 180000009 cycles: 45011619 heartbeat IPC: 4 cumulative IPC: 3.999 (Simulation time: 03 hr 01 min 30 sec)
Heartbeat CPU 6 instructions: 180000003 cycles: 45011821 heartbeat IPC: 4 cumulative IPC: 3.999 (Simulation time: 03 hr 01 min 30 sec)
Heartbeat CPU 7 instructions: 180000003 cycles: 45011954 heartbeat IPC: 4 cumulative IPC: 3.999 (Simulation time: 03 hr 01 min 30 sec)
Heartbeat CPU 2 instructions: 180000006 cycles: 45014465 heartbeat IPC: 4 cumulative IPC: 3.999 (Simulation time: 03 hr 01 min 31 sec)
*** Reached end of trace: (2, "traces/ocean_8t/ocean2.champsimtrace")
*** Reached end of trace: (5, "traces/ocean_8t/ocean5.champsimtrace")
*** Reached end of trace: (4, "traces/ocean_8t/ocean4.champsimtrace")
*** Reached end of trace: (6, "traces/ocean_8t/ocean6.champsimtrace")
*** Reached end of trace: (3, "traces/ocean_8t/ocean3.champsimtrace")
*** Reached end of trace: (7, "traces/ocean_8t/ocean7.champsimtrace")
Heartbeat CPU 4 instructions: 190000006 cycles: 47511533 heartbeat IPC: 4 cumulative IPC: 3.999 (Simulation time: 03 hr 11 min 50 sec)
Heartbeat CPU 3 instructions: 190000004 cycles: 47511602 heartbeat IPC: 4 cumulative IPC: 3.999 (Simulation time: 03 hr 11 min 50 sec)
Heartbeat CPU 5 instructions: 190000009 cycles: 47511619 heartbeat IPC: 4 cumulative IPC: 3.999 (Simulation time: 03 hr 11 min 50 sec)
Heartbeat CPU 6 instructions: 190000003 cycles: 47511821 heartbeat IPC: 4 cumulative IPC: 3.999 (Simulation time: 03 hr 11 min 50 sec)
Heartbeat CPU 7 instructions: 190000003 cycles: 47511954 heartbeat IPC: 4 cumulative IPC: 3.999 (Simulation time: 03 hr 11 min 50 sec)
Heartbeat CPU 2 instructions: 190000006 cycles: 47514465 heartbeat IPC: 4 cumulative IPC: 3.999 (Simulation time: 03 hr 11 min 51 sec)
Heartbeat CPU 1 instructions: 110000014 cycles: 48147421 heartbeat IPC: 2.439 cumulative IPC: 2.285 (Simulation time: 03 hr 14 min 27 sec)
Heartbeat CPU 4 instructions: 200000006 cycles: 50011533 heartbeat IPC: 4 cumulative IPC: 3.999 (Simulation time: 03 hr 22 min 06 sec)
Heartbeat CPU 3 instructions: 200000004 cycles: 50011602 heartbeat IPC: 4 cumulative IPC: 3.999 (Simulation time: 03 hr 22 min 06 sec)
Heartbeat CPU 5 instructions: 200000009 cycles: 50011619 heartbeat IPC: 4 cumulative IPC: 3.999 (Simulation time: 03 hr 22 min 06 sec)
Heartbeat CPU 6 instructions: 200000003 cycles: 50011821 heartbeat IPC: 4 cumulative IPC: 3.999 (Simulation time: 03 hr 22 min 06 sec)
Heartbeat CPU 7 instructions: 200000003 cycles: 50011954 heartbeat IPC: 4 cumulative IPC: 3.999 (Simulation time: 03 hr 22 min 07 sec)
Heartbeat CPU 2 instructions: 200000006 cycles: 50014465 heartbeat IPC: 4 cumulative IPC: 3.999 (Simulation time: 03 hr 22 min 07 sec)
Heartbeat CPU 4 instructions: 210000006 cycles: 52511533 heartbeat IPC: 4 cumulative IPC: 3.999 (Simulation time: 03 hr 31 min 28 sec)
Heartbeat CPU 3 instructions: 210000004 cycles: 52511602 heartbeat IPC: 4 cumulative IPC: 3.999 (Simulation time: 03 hr 31 min 28 sec)
Heartbeat CPU 5 instructions: 210000009 cycles: 52511619 heartbeat IPC: 4 cumulative IPC: 3.999 (Simulation time: 03 hr 31 min 28 sec)
Heartbeat CPU 6 instructions: 210000003 cycles: 52511821 heartbeat IPC: 4 cumulative IPC: 3.999 (Simulation time: 03 hr 31 min 28 sec)
Heartbeat CPU 7 instructions: 210000003 cycles: 52511954 heartbeat IPC: 4 cumulative IPC: 3.999 (Simulation time: 03 hr 31 min 28 sec)
Heartbeat CPU 2 instructions: 210000006 cycles: 52514465 heartbeat IPC: 4 cumulative IPC: 3.999 (Simulation time: 03 hr 31 min 29 sec)
Heartbeat CPU 1 instructions: 120000014 cycles: 53080374 heartbeat IPC: 2.027 cumulative IPC: 2.261 (Simulation time: 03 hr 33 min 30 sec)
Heartbeat CPU 4 instructions: 220000006 cycles: 55011533 heartbeat IPC: 4 cumulative IPC: 3.999 (Simulation time: 03 hr 40 min 30 sec)
Heartbeat CPU 3 instructions: 220000004 cycles: 55011602 heartbeat IPC: 4 cumulative IPC: 3.999 (Simulation time: 03 hr 40 min 30 sec)
Heartbeat CPU 5 instructions: 220000009 cycles: 55011619 heartbeat IPC: 4 cumulative IPC: 3.999 (Simulation time: 03 hr 40 min 30 sec)
Heartbeat CPU 6 instructions: 220000003 cycles: 55011821 heartbeat IPC: 4 cumulative IPC: 3.999 (Simulation time: 03 hr 40 min 30 sec)
Heartbeat CPU 7 instructions: 220000003 cycles: 55011954 heartbeat IPC: 4 cumulative IPC: 3.999 (Simulation time: 03 hr 40 min 30 sec)
Heartbeat CPU 2 instructions: 220000006 cycles: 55014465 heartbeat IPC: 4 cumulative IPC: 3.999 (Simulation time: 03 hr 40 min 30 sec)
*** Reached end of trace: (2, "traces/ocean_8t/ocean2.champsimtrace")
*** Reached end of trace: (5, "traces/ocean_8t/ocean5.champsimtrace")
*** Reached end of trace: (4, "traces/ocean_8t/ocean4.champsimtrace")
*** Reached end of trace: (6, "traces/ocean_8t/ocean6.champsimtrace")
*** Reached end of trace: (3, "traces/ocean_8t/ocean3.champsimtrace")
*** Reached end of trace: (7, "traces/ocean_8t/ocean7.champsimtrace")
Heartbeat CPU 4 instructions: 230000006 cycles: 57511533 heartbeat IPC: 4 cumulative IPC: 3.999 (Simulation time: 03 hr 49 min 39 sec)
Heartbeat CPU 3 instructions: 230000004 cycles: 57511602 heartbeat IPC: 4 cumulative IPC: 3.999 (Simulation time: 03 hr 49 min 39 sec)
Heartbeat CPU 5 instructions: 230000009 cycles: 57511619 heartbeat IPC: 4 cumulative IPC: 3.999 (Simulation time: 03 hr 49 min 39 sec)
Heartbeat CPU 6 instructions: 230000003 cycles: 57511821 heartbeat IPC: 4 cumulative IPC: 3.999 (Simulation time: 03 hr 49 min 39 sec)
Heartbeat CPU 7 instructions: 230000003 cycles: 57511954 heartbeat IPC: 4 cumulative IPC: 3.999 (Simulation time: 03 hr 49 min 39 sec)
Heartbeat CPU 2 instructions: 230000006 cycles: 57514465 heartbeat IPC: 4 cumulative IPC: 3.999 (Simulation time: 03 hr 49 min 39 sec)
Heartbeat CPU 1 instructions: 130000015 cycles: 57567291 heartbeat IPC: 2.229 cumulative IPC: 2.258 (Simulation time: 03 hr 49 min 51 sec)
*** Reached end of trace: (1, "traces/ocean_8t/ocean1.champsimtrace")
Heartbeat CPU 4 instructions: 240000006 cycles: 60011533 heartbeat IPC: 4 cumulative IPC: 3.999 (Simulation time: 03 hr 58 min 56 sec)
Heartbeat CPU 3 instructions: 240000004 cycles: 60011602 heartbeat IPC: 4 cumulative IPC: 3.999 (Simulation time: 03 hr 58 min 56 sec)
Heartbeat CPU 5 instructions: 240000009 cycles: 60011619 heartbeat IPC: 4 cumulative IPC: 3.999 (Simulation time: 03 hr 58 min 56 sec)
Heartbeat CPU 6 instructions: 240000003 cycles: 60011821 heartbeat IPC: 4 cumulative IPC: 3.999 (Simulation time: 03 hr 58 min 56 sec)
Heartbeat CPU 7 instructions: 240000003 cycles: 60011954 heartbeat IPC: 4 cumulative IPC: 3.999 (Simulation time: 03 hr 58 min 56 sec)
Heartbeat CPU 2 instructions: 240000006 cycles: 60014465 heartbeat IPC: 4 cumulative IPC: 3.999 (Simulation time: 03 hr 58 min 57 sec)
Heartbeat CPU 1 instructions: 140000015 cycles: 61289979 heartbeat IPC: 2.686 cumulative IPC: 2.284 (Simulation time: 04 hr 03 min 54 sec)
Heartbeat CPU 0 instructions: 30000005 cycles: 62420842 heartbeat IPC: 0.4962 cumulative IPC: 0.4806 (Simulation time: 04 hr 08 min 13 sec)
Heartbeat CPU 4 instructions: 250000006 cycles: 62511533 heartbeat IPC: 4 cumulative IPC: 3.999 (Simulation time: 04 hr 08 min 34 sec)
Heartbeat CPU 3 instructions: 250000004 cycles: 62511602 heartbeat IPC: 4 cumulative IPC: 3.999 (Simulation time: 04 hr 08 min 34 sec)
Heartbeat CPU 5 instructions: 250000009 cycles: 62511619 heartbeat IPC: 4 cumulative IPC: 3.999 (Simulation time: 04 hr 08 min 34 sec)
Heartbeat CPU 6 instructions: 250000003 cycles: 62511821 heartbeat IPC: 4 cumulative IPC: 3.999 (Simulation time: 04 hr 08 min 34 sec)
Heartbeat CPU 7 instructions: 250000003 cycles: 62511954 heartbeat IPC: 4 cumulative IPC: 3.999 (Simulation time: 04 hr 08 min 34 sec)
Heartbeat CPU 2 instructions: 250000006 cycles: 62514465 heartbeat IPC: 4 cumulative IPC: 3.999 (Simulation time: 04 hr 08 min 35 sec)
Heartbeat CPU 4 instructions: 260000006 cycles: 65011533 heartbeat IPC: 4 cumulative IPC: 3.999 (Simulation time: 04 hr 18 min 16 sec)
Heartbeat CPU 3 instructions: 260000004 cycles: 65011602 heartbeat IPC: 4 cumulative IPC: 3.999 (Simulation time: 04 hr 18 min 16 sec)
Heartbeat CPU 5 instructions: 260000009 cycles: 65011619 heartbeat IPC: 4 cumulative IPC: 3.999 (Simulation time: 04 hr 18 min 16 sec)
Heartbeat CPU 6 instructions: 260000003 cycles: 65011821 heartbeat IPC: 4 cumulative IPC: 3.999 (Simulation time: 04 hr 18 min 16 sec)
Heartbeat CPU 7 instructions: 260000003 cycles: 65011954 heartbeat IPC: 4 cumulative IPC: 3.999 (Simulation time: 04 hr 18 min 16 sec)
Heartbeat CPU 2 instructions: 260000006 cycles: 65014465 heartbeat IPC: 4 cumulative IPC: 3.999 (Simulation time: 04 hr 18 min 17 sec)
Heartbeat CPU 1 instructions: 150000015 cycles: 65483332 heartbeat IPC: 2.385 cumulative IPC: 2.291 (Simulation time: 04 hr 20 min 04 sec)
Heartbeat CPU 4 instructions: 270000006 cycles: 67511533 heartbeat IPC: 4 cumulative IPC: 3.999 (Simulation time: 04 hr 27 min 59 sec)
Heartbeat CPU 3 instructions: 270000004 cycles: 67511602 heartbeat IPC: 4 cumulative IPC: 3.999 (Simulation time: 04 hr 27 min 59 sec)
Heartbeat CPU 5 instructions: 270000009 cycles: 67511619 heartbeat IPC: 4 cumulative IPC: 3.999 (Simulation time: 04 hr 27 min 59 sec)
Heartbeat CPU 6 instructions: 270000003 cycles: 67511821 heartbeat IPC: 4 cumulative IPC: 3.999 (Simulation time: 04 hr 27 min 59 sec)
Heartbeat CPU 7 instructions: 270000003 cycles: 67511954 heartbeat IPC: 4 cumulative IPC: 3.999 (Simulation time: 04 hr 27 min 59 sec)
Heartbeat CPU 2 instructions: 270000006 cycles: 67514465 heartbeat IPC: 4 cumulative IPC: 3.999 (Simulation time: 04 hr 28 min 00 sec)
*** Reached end of trace: (2, "traces/ocean_8t/ocean2.champsimtrace")
*** Reached end of trace: (5, "traces/ocean_8t/ocean5.champsimtrace")
*** Reached end of trace: (4, "traces/ocean_8t/ocean4.champsimtrace")
*** Reached end of trace: (6, "traces/ocean_8t/ocean6.champsimtrace")
*** Reached end of trace: (3, "traces/ocean_8t/ocean3.champsimtrace")
*** Reached end of trace: (7, "traces/ocean_8t/ocean7.champsimtrace")
Heartbeat CPU 1 instructions: 160000016 cycles: 69604183 heartbeat IPC: 2.427 cumulative IPC: 2.299 (Simulation time: 04 hr 36 min 06 sec)
Heartbeat CPU 4 instructions: 280000006 cycles: 70011533 heartbeat IPC: 4 cumulative IPC: 3.999 (Simulation time: 04 hr 37 min 41 sec)
Heartbeat CPU 3 instructions: 280000004 cycles: 70011602 heartbeat IPC: 4 cumulative IPC: 3.999 (Simulation time: 04 hr 37 min 41 sec)
Heartbeat CPU 5 instructions: 280000009 cycles: 70011619 heartbeat IPC: 4 cumulative IPC: 3.999 (Simulation time: 04 hr 37 min 41 sec)
Heartbeat CPU 6 instructions: 280000003 cycles: 70011821 heartbeat IPC: 4 cumulative IPC: 3.999 (Simulation time: 04 hr 37 min 41 sec)
Heartbeat CPU 7 instructions: 280000003 cycles: 70011954 heartbeat IPC: 4 cumulative IPC: 3.999 (Simulation time: 04 hr 37 min 41 sec)
Heartbeat CPU 2 instructions: 280000006 cycles: 70014465 heartbeat IPC: 4 cumulative IPC: 3.999 (Simulation time: 04 hr 37 min 42 sec)
Heartbeat CPU 4 instructions: 290000006 cycles: 72511533 heartbeat IPC: 4 cumulative IPC: 3.999 (Simulation time: 04 hr 47 min 21 sec)
Heartbeat CPU 3 instructions: 290000004 cycles: 72511602 heartbeat IPC: 4 cumulative IPC: 3.999 (Simulation time: 04 hr 47 min 21 sec)
Heartbeat CPU 5 instructions: 290000009 cycles: 72511619 heartbeat IPC: 4 cumulative IPC: 3.999 (Simulation time: 04 hr 47 min 21 sec)
Heartbeat CPU 6 instructions: 290000003 cycles: 72511821 heartbeat IPC: 4 cumulative IPC: 3.999 (Simulation time: 04 hr 47 min 21 sec)
Heartbeat CPU 7 instructions: 290000003 cycles: 72511954 heartbeat IPC: 4 cumulative IPC: 3.999 (Simulation time: 04 hr 47 min 21 sec)
Heartbeat CPU 2 instructions: 290000006 cycles: 72514465 heartbeat IPC: 4 cumulative IPC: 3.999 (Simulation time: 04 hr 47 min 22 sec)
Heartbeat CPU 4 instructions: 300000006 cycles: 75011533 heartbeat IPC: 4 cumulative IPC: 3.999 (Simulation time: 04 hr 57 min 13 sec)
Heartbeat CPU 3 instructions: 300000004 cycles: 75011602 heartbeat IPC: 4 cumulative IPC: 3.999 (Simulation time: 04 hr 57 min 13 sec)
Heartbeat CPU 5 instructions: 300000009 cycles: 75011619 heartbeat IPC: 4 cumulative IPC: 3.999 (Simulation time: 04 hr 57 min 13 sec)
Heartbeat CPU 6 instructions: 300000003 cycles: 75011821 heartbeat IPC: 4 cumulative IPC: 3.999 (Simulation time: 04 hr 57 min 13 sec)
Heartbeat CPU 7 instructions: 300000003 cycles: 75011954 heartbeat IPC: 4 cumulative IPC: 3.999 (Simulation time: 04 hr 57 min 13 sec)
Heartbeat CPU 2 instructions: 300000006 cycles: 75014465 heartbeat IPC: 4 cumulative IPC: 3.999 (Simulation time: 04 hr 57 min 13 sec)
Heartbeat CPU 1 instructions: 170000018 cycles: 75181765 heartbeat IPC: 1.793 cumulative IPC: 2.261 (Simulation time: 04 hr 57 min 54 sec)
Heartbeat CPU 4 instructions: 310000006 cycles: 77511533 heartbeat IPC: 4 cumulative IPC: 3.999 (Simulation time: 05 hr 07 min 27 sec)
Heartbeat CPU 3 instructions: 310000004 cycles: 77511602 heartbeat IPC: 4 cumulative IPC: 3.999 (Simulation time: 05 hr 07 min 27 sec)
Heartbeat CPU 5 instructions: 310000009 cycles: 77511619 heartbeat IPC: 4 cumulative IPC: 3.999 (Simulation time: 05 hr 07 min 27 sec)
Heartbeat CPU 6 instructions: 310000003 cycles: 77511821 heartbeat IPC: 4 cumulative IPC: 3.999 (Simulation time: 05 hr 07 min 27 sec)
Heartbeat CPU 7 instructions: 310000003 cycles: 77511954 heartbeat IPC: 4 cumulative IPC: 3.999 (Simulation time: 05 hr 07 min 27 sec)
Heartbeat CPU 2 instructions: 310000006 cycles: 77514465 heartbeat IPC: 4 cumulative IPC: 3.999 (Simulation time: 05 hr 07 min 28 sec)
Heartbeat CPU 1 instructions: 180000021 cycles: 78728750 heartbeat IPC: 2.819 cumulative IPC: 2.286 (Simulation time: 05 hr 12 min 25 sec)
*** Reached end of trace: (2, "traces/ocean_8t/ocean2.champsimtrace")
*** Reached end of trace: (5, "traces/ocean_8t/ocean5.champsimtrace")
*** Reached end of trace: (4, "traces/ocean_8t/ocean4.champsimtrace")
*** Reached end of trace: (6, "traces/ocean_8t/ocean6.champsimtrace")
*** Reached end of trace: (1, "traces/ocean_8t/ocean1.champsimtrace")
*** Reached end of trace: (3, "traces/ocean_8t/ocean3.champsimtrace")
*** Reached end of trace: (7, "traces/ocean_8t/ocean7.champsimtrace")
Heartbeat CPU 4 instructions: 320000006 cycles: 80011533 heartbeat IPC: 4 cumulative IPC: 3.999 (Simulation time: 05 hr 17 min 41 sec)
Heartbeat CPU 3 instructions: 320000004 cycles: 80011602 heartbeat IPC: 4 cumulative IPC: 3.999 (Simulation time: 05 hr 17 min 41 sec)
Heartbeat CPU 5 instructions: 320000009 cycles: 80011619 heartbeat IPC: 4 cumulative IPC: 3.999 (Simulation time: 05 hr 17 min 41 sec)
Heartbeat CPU 6 instructions: 320000003 cycles: 80011821 heartbeat IPC: 4 cumulative IPC: 3.999 (Simulation time: 05 hr 17 min 41 sec)
Heartbeat CPU 7 instructions: 320000003 cycles: 80011954 heartbeat IPC: 4 cumulative IPC: 3.999 (Simulation time: 05 hr 17 min 41 sec)
Heartbeat CPU 2 instructions: 320000006 cycles: 80014465 heartbeat IPC: 4 cumulative IPC: 3.999 (Simulation time: 05 hr 17 min 42 sec)
Heartbeat CPU 4 instructions: 330000006 cycles: 82511533 heartbeat IPC: 4 cumulative IPC: 3.999 (Simulation time: 05 hr 27 min 48 sec)
Heartbeat CPU 3 instructions: 330000004 cycles: 82511602 heartbeat IPC: 4 cumulative IPC: 3.999 (Simulation time: 05 hr 27 min 48 sec)
Heartbeat CPU 5 instructions: 330000009 cycles: 82511619 heartbeat IPC: 4 cumulative IPC: 3.999 (Simulation time: 05 hr 27 min 48 sec)
Heartbeat CPU 6 instructions: 330000003 cycles: 82511821 heartbeat IPC: 4 cumulative IPC: 3.999 (Simulation time: 05 hr 27 min 48 sec)
Heartbeat CPU 7 instructions: 330000003 cycles: 82511954 heartbeat IPC: 4 cumulative IPC: 3.999 (Simulation time: 05 hr 27 min 48 sec)
Heartbeat CPU 2 instructions: 330000006 cycles: 82514465 heartbeat IPC: 4 cumulative IPC: 3.999 (Simulation time: 05 hr 27 min 49 sec)
Heartbeat CPU 1 instructions: 190000024 cycles: 82720844 heartbeat IPC: 2.505 cumulative IPC: 2.297 (Simulation time: 05 hr 28 min 39 sec)
Heartbeat CPU 0 instructions: 40000006 cycles: 84922597 heartbeat IPC: 0.4444 cumulative IPC: 0.471 (Simulation time: 05 hr 37 min 30 sec)
Heartbeat CPU 4 instructions: 340000006 cycles: 85011533 heartbeat IPC: 4 cumulative IPC: 3.999 (Simulation time: 05 hr 37 min 51 sec)
Heartbeat CPU 3 instructions: 340000004 cycles: 85011602 heartbeat IPC: 4 cumulative IPC: 3.999 (Simulation time: 05 hr 37 min 51 sec)
Heartbeat CPU 5 instructions: 340000009 cycles: 85011619 heartbeat IPC: 4 cumulative IPC: 3.999 (Simulation time: 05 hr 37 min 51 sec)
Heartbeat CPU 6 instructions: 340000003 cycles: 85011821 heartbeat IPC: 4 cumulative IPC: 3.999 (Simulation time: 05 hr 37 min 51 sec)
Heartbeat CPU 7 instructions: 340000003 cycles: 85011954 heartbeat IPC: 4 cumulative IPC: 3.999 (Simulation time: 05 hr 37 min 51 sec)
Heartbeat CPU 2 instructions: 340000006 cycles: 85014465 heartbeat IPC: 4 cumulative IPC: 3.999 (Simulation time: 05 hr 37 min 52 sec)
Heartbeat CPU 1 instructions: 200000024 cycles: 86804419 heartbeat IPC: 2.449 cumulative IPC: 2.304 (Simulation time: 05 hr 45 min 01 sec)
Heartbeat CPU 4 instructions: 350000006 cycles: 87511533 heartbeat IPC: 4 cumulative IPC: 3.999 (Simulation time: 05 hr 47 min 48 sec)
Heartbeat CPU 3 instructions: 350000004 cycles: 87511602 heartbeat IPC: 4 cumulative IPC: 3.999 (Simulation time: 05 hr 47 min 48 sec)
Heartbeat CPU 5 instructions: 350000009 cycles: 87511619 heartbeat IPC: 4 cumulative IPC: 3.999 (Simulation time: 05 hr 47 min 48 sec)
Heartbeat CPU 6 instructions: 350000003 cycles: 87511821 heartbeat IPC: 4 cumulative IPC: 3.999 (Simulation time: 05 hr 47 min 48 sec)
Heartbeat CPU 7 instructions: 350000003 cycles: 87511954 heartbeat IPC: 4 cumulative IPC: 3.999 (Simulation time: 05 hr 47 min 48 sec)
Heartbeat CPU 2 instructions: 350000006 cycles: 87514465 heartbeat IPC: 4 cumulative IPC: 3.999 (Simulation time: 05 hr 47 min 48 sec)
Heartbeat CPU 4 instructions: 360000006 cycles: 90011533 heartbeat IPC: 4 cumulative IPC: 3.999 (Simulation time: 05 hr 57 min 43 sec)
Heartbeat CPU 3 instructions: 360000004 cycles: 90011602 heartbeat IPC: 4 cumulative IPC: 3.999 (Simulation time: 05 hr 57 min 43 sec)
Heartbeat CPU 5 instructions: 360000009 cycles: 90011619 heartbeat IPC: 4 cumulative IPC: 3.999 (Simulation time: 05 hr 57 min 43 sec)
Heartbeat CPU 6 instructions: 360000003 cycles: 90011821 heartbeat IPC: 4 cumulative IPC: 3.999 (Simulation time: 05 hr 57 min 43 sec)
Heartbeat CPU 7 instructions: 360000003 cycles: 90011954 heartbeat IPC: 4 cumulative IPC: 3.999 (Simulation time: 05 hr 57 min 43 sec)
Heartbeat CPU 2 instructions: 360000006 cycles: 90014465 heartbeat IPC: 4 cumulative IPC: 3.999 (Simulation time: 05 hr 57 min 43 sec)
*** Reached end of trace: (2, "traces/ocean_8t/ocean2.champsimtrace")
*** Reached end of trace: (5, "traces/ocean_8t/ocean5.champsimtrace")
*** Reached end of trace: (4, "traces/ocean_8t/ocean4.champsimtrace")
*** Reached end of trace: (6, "traces/ocean_8t/ocean6.champsimtrace")
*** Reached end of trace: (3, "traces/ocean_8t/ocean3.champsimtrace")
*** Reached end of trace: (7, "traces/ocean_8t/ocean7.champsimtrace")
Heartbeat CPU 1 instructions: 210000026 cycles: 91557912 heartbeat IPC: 2.104 cumulative IPC: 2.294 (Simulation time: 06 hr 03 min 38 sec)
Heartbeat CPU 4 instructions: 370000006 cycles: 92511533 heartbeat IPC: 4 cumulative IPC: 4 (Simulation time: 06 hr 07 min 12 sec)
Heartbeat CPU 3 instructions: 370000004 cycles: 92511602 heartbeat IPC: 4 cumulative IPC: 3.999 (Simulation time: 06 hr 07 min 12 sec)
Heartbeat CPU 5 instructions: 370000009 cycles: 92511619 heartbeat IPC: 4 cumulative IPC: 3.999 (Simulation time: 06 hr 07 min 12 sec)
Heartbeat CPU 6 instructions: 370000003 cycles: 92511821 heartbeat IPC: 4 cumulative IPC: 3.999 (Simulation time: 06 hr 07 min 12 sec)
Heartbeat CPU 7 instructions: 370000003 cycles: 92511954 heartbeat IPC: 4 cumulative IPC: 3.999 (Simulation time: 06 hr 07 min 12 sec)
Heartbeat CPU 2 instructions: 370000006 cycles: 92514465 heartbeat IPC: 4 cumulative IPC: 3.999 (Simulation time: 06 hr 07 min 12 sec)
Heartbeat CPU 4 instructions: 380000006 cycles: 95011533 heartbeat IPC: 4 cumulative IPC: 4 (Simulation time: 06 hr 16 min 42 sec)
Heartbeat CPU 3 instructions: 380000004 cycles: 95011602 heartbeat IPC: 4 cumulative IPC: 4 (Simulation time: 06 hr 16 min 42 sec)
Heartbeat CPU 5 instructions: 380000009 cycles: 95011619 heartbeat IPC: 4 cumulative IPC: 4 (Simulation time: 06 hr 16 min 42 sec)
Heartbeat CPU 6 instructions: 380000003 cycles: 95011821 heartbeat IPC: 4 cumulative IPC: 4 (Simulation time: 06 hr 16 min 42 sec)
Heartbeat CPU 7 instructions: 380000003 cycles: 95011954 heartbeat IPC: 4 cumulative IPC: 3.999 (Simulation time: 06 hr 16 min 42 sec)
Heartbeat CPU 2 instructions: 380000006 cycles: 95014465 heartbeat IPC: 4 cumulative IPC: 3.999 (Simulation time: 06 hr 16 min 43 sec)
Heartbeat CPU 1 instructions: 220000026 cycles: 96276549 heartbeat IPC: 2.119 cumulative IPC: 2.285 (Simulation time: 06 hr 21 min 33 sec)
Heartbeat CPU 4 instructions: 390000006 cycles: 97511533 heartbeat IPC: 4 cumulative IPC: 4 (Simulation time: 06 hr 26 min 11 sec)
Heartbeat CPU 3 instructions: 390000004 cycles: 97511602 heartbeat IPC: 4 cumulative IPC: 4 (Simulation time: 06 hr 26 min 11 sec)
Heartbeat CPU 5 instructions: 390000009 cycles: 97511619 heartbeat IPC: 4 cumulative IPC: 4 (Simulation time: 06 hr 26 min 11 sec)
Heartbeat CPU 6 instructions: 390000003 cycles: 97511821 heartbeat IPC: 4 cumulative IPC: 4 (Simulation time: 06 hr 26 min 11 sec)
Heartbeat CPU 7 instructions: 390000003 cycles: 97511954 heartbeat IPC: 4 cumulative IPC: 4 (Simulation time: 06 hr 26 min 11 sec)
Heartbeat CPU 2 instructions: 390000006 cycles: 97514465 heartbeat IPC: 4 cumulative IPC: 3.999 (Simulation time: 06 hr 26 min 12 sec)
*** Reached end of trace: (0, "traces/ocean_8t/ocean0.champsimtrace")
*** Reached end of trace: (1, "traces/ocean_8t/ocean1.champsimtrace")
Heartbeat CPU 1 instructions: 230000028 cycles: 99981427 heartbeat IPC: 2.699 cumulative IPC: 2.3 (Simulation time: 06 hr 35 min 43 sec)
Heartbeat CPU 4 instructions: 400000006 cycles: 100011533 heartbeat IPC: 4 cumulative IPC: 4 (Simulation time: 06 hr 35 min 50 sec)
Heartbeat CPU 3 instructions: 400000004 cycles: 100011602 heartbeat IPC: 4 cumulative IPC: 4 (Simulation time: 06 hr 35 min 50 sec)
Heartbeat CPU 5 instructions: 400000009 cycles: 100011619 heartbeat IPC: 4 cumulative IPC: 4 (Simulation time: 06 hr 35 min 50 sec)
Heartbeat CPU 6 instructions: 400000003 cycles: 100011821 heartbeat IPC: 4 cumulative IPC: 4 (Simulation time: 06 hr 35 min 50 sec)
Heartbeat CPU 7 instructions: 400000003 cycles: 100011954 heartbeat IPC: 4 cumulative IPC: 4 (Simulation time: 06 hr 35 min 50 sec)
Heartbeat CPU 2 instructions: 400000006 cycles: 100014465 heartbeat IPC: 4 cumulative IPC: 3.999 (Simulation time: 06 hr 35 min 50 sec)
*** Reached end of trace: (2, "traces/ocean_8t/ocean2.champsimtrace")
*** Reached end of trace: (5, "traces/ocean_8t/ocean5.champsimtrace")
*** Reached end of trace: (4, "traces/ocean_8t/ocean4.champsimtrace")
*** Reached end of trace: (6, "traces/ocean_8t/ocean6.champsimtrace")
*** Reached end of trace: (3, "traces/ocean_8t/ocean3.champsimtrace")
*** Reached end of trace: (7, "traces/ocean_8t/ocean7.champsimtrace")
Heartbeat CPU 4 instructions: 410000006 cycles: 102511533 heartbeat IPC: 4 cumulative IPC: 4 (Simulation time: 06 hr 45 min 24 sec)
Heartbeat CPU 3 instructions: 410000004 cycles: 102511602 heartbeat IPC: 4 cumulative IPC: 4 (Simulation time: 06 hr 45 min 24 sec)
Heartbeat CPU 5 instructions: 410000009 cycles: 102511619 heartbeat IPC: 4 cumulative IPC: 4 (Simulation time: 06 hr 45 min 24 sec)
Heartbeat CPU 6 instructions: 410000003 cycles: 102511821 heartbeat IPC: 4 cumulative IPC: 4 (Simulation time: 06 hr 45 min 24 sec)
Heartbeat CPU 7 instructions: 410000003 cycles: 102511954 heartbeat IPC: 4 cumulative IPC: 4 (Simulation time: 06 hr 45 min 25 sec)
Heartbeat CPU 2 instructions: 410000006 cycles: 102514465 heartbeat IPC: 4 cumulative IPC: 3.999 (Simulation time: 06 hr 45 min 25 sec)
Heartbeat CPU 1 instructions: 240000029 cycles: 104147835 heartbeat IPC: 2.4 cumulative IPC: 2.304 (Simulation time: 06 hr 51 min 33 sec)
Heartbeat CPU 4 instructions: 420000006 cycles: 105011533 heartbeat IPC: 4 cumulative IPC: 4 (Simulation time: 06 hr 54 min 11 sec)
Heartbeat CPU 3 instructions: 420000004 cycles: 105011602 heartbeat IPC: 4 cumulative IPC: 4 (Simulation time: 06 hr 54 min 11 sec)
Heartbeat CPU 5 instructions: 420000009 cycles: 105011619 heartbeat IPC: 4 cumulative IPC: 4 (Simulation time: 06 hr 54 min 11 sec)
Heartbeat CPU 6 instructions: 420000003 cycles: 105011821 heartbeat IPC: 4 cumulative IPC: 4 (Simulation time: 06 hr 54 min 11 sec)
Heartbeat CPU 7 instructions: 420000003 cycles: 105011954 heartbeat IPC: 4 cumulative IPC: 4 (Simulation time: 06 hr 54 min 11 sec)
Heartbeat CPU 2 instructions: 420000006 cycles: 105014465 heartbeat IPC: 4 cumulative IPC: 3.999 (Simulation time: 06 hr 54 min 11 sec)
Warmup finished CPU 0 instructions: 50000000 cycles: 106811676 cumulative IPC: 0.4681 (Simulation time: 07 hr 00 min 48 sec)
Warmup complete CPU 7 instructions: 427198891 cycles: 106811676 cumulative IPC: 4 (Simulation time: 07 hr 00 min 48 sec)
Warmup complete CPU 6 instructions: 427199423 cycles: 106811676 cumulative IPC: 4 (Simulation time: 07 hr 00 min 48 sec)
Warmup complete CPU 5 instructions: 427200237 cycles: 106811676 cumulative IPC: 4 (Simulation time: 07 hr 00 min 48 sec)
Warmup complete CPU 4 instructions: 427200578 cycles: 106811676 cumulative IPC: 4 (Simulation time: 07 hr 00 min 48 sec)
Warmup complete CPU 3 instructions: 427200300 cycles: 106811676 cumulative IPC: 4 (Simulation time: 07 hr 00 min 48 sec)
Warmup complete CPU 2 instructions: 427188850 cycles: 106811676 cumulative IPC: 3.999 (Simulation time: 07 hr 00 min 48 sec)
Warmup complete CPU 1 instructions: 246695073 cycles: 106811676 cumulative IPC: 2.31 (Simulation time: 07 hr 00 min 48 sec)
Warmup complete CPU 0 instructions: 50000000 cycles: 106811676 cumulative IPC: 0.4681 (Simulation time: 07 hr 00 min 48 sec)
Heartbeat CPU 0 instructions: 50000008 cycles: 106811862 heartbeat IPC: 0.4568 cumulative IPC: 0.04301 (Simulation time: 07 hr 00 min 48 sec)
Heartbeat CPU 4 instructions: 430000006 cycles: 107511533 heartbeat IPC: 4 cumulative IPC: 4 (Simulation time: 07 hr 03 min 22 sec)
Heartbeat CPU 3 instructions: 430000004 cycles: 107511602 heartbeat IPC: 4 cumulative IPC: 4 (Simulation time: 07 hr 03 min 22 sec)
Heartbeat CPU 5 instructions: 430000009 cycles: 107511619 heartbeat IPC: 4 cumulative IPC: 4 (Simulation time: 07 hr 03 min 22 sec)
Heartbeat CPU 6 instructions: 430000003 cycles: 107511821 heartbeat IPC: 4 cumulative IPC: 4 (Simulation time: 07 hr 03 min 22 sec)
Heartbeat CPU 7 instructions: 430000003 cycles: 107511954 heartbeat IPC: 4 cumulative IPC: 4 (Simulation time: 07 hr 03 min 22 sec)
Heartbeat CPU 2 instructions: 430000006 cycles: 107514465 heartbeat IPC: 4 cumulative IPC: 4 (Simulation time: 07 hr 03 min 22 sec)
Heartbeat CPU 4 instructions: 440000006 cycles: 110011533 heartbeat IPC: 4 cumulative IPC: 4 (Simulation time: 07 hr 12 min 10 sec)
Heartbeat CPU 3 instructions: 440000004 cycles: 110011602 heartbeat IPC: 4 cumulative IPC: 4 (Simulation time: 07 hr 12 min 10 sec)
Heartbeat CPU 5 instructions: 440000009 cycles: 110011619 heartbeat IPC: 4 cumulative IPC: 4 (Simulation time: 07 hr 12 min 10 sec)
Heartbeat CPU 6 instructions: 440000003 cycles: 110011821 heartbeat IPC: 4 cumulative IPC: 4 (Simulation time: 07 hr 12 min 10 sec)
Heartbeat CPU 7 instructions: 440000003 cycles: 110011954 heartbeat IPC: 4 cumulative IPC: 4 (Simulation time: 07 hr 12 min 10 sec)
Heartbeat CPU 2 instructions: 440000006 cycles: 110014465 heartbeat IPC: 4 cumulative IPC: 4 (Simulation time: 07 hr 12 min 11 sec)
Heartbeat CPU 4 instructions: 450000006 cycles: 112511533 heartbeat IPC: 4 cumulative IPC: 4 (Simulation time: 07 hr 20 min 59 sec)
Heartbeat CPU 3 instructions: 450000004 cycles: 112511602 heartbeat IPC: 4 cumulative IPC: 4 (Simulation time: 07 hr 20 min 59 sec)
Heartbeat CPU 5 instructions: 450000009 cycles: 112511619 heartbeat IPC: 4 cumulative IPC: 4 (Simulation time: 07 hr 20 min 59 sec)
Heartbeat CPU 6 instructions: 450000003 cycles: 112511821 heartbeat IPC: 4 cumulative IPC: 4 (Simulation time: 07 hr 20 min 59 sec)
Heartbeat CPU 7 instructions: 450000003 cycles: 112511954 heartbeat IPC: 4 cumulative IPC: 4 (Simulation time: 07 hr 20 min 59 sec)
Heartbeat CPU 2 instructions: 450000006 cycles: 112514465 heartbeat IPC: 4 cumulative IPC: 4 (Simulation time: 07 hr 20 min 59 sec)
*** Reached end of trace: (2, "traces/ocean_8t/ocean2.champsimtrace")
*** Reached end of trace: (5, "traces/ocean_8t/ocean5.champsimtrace")
*** Reached end of trace: (4, "traces/ocean_8t/ocean4.champsimtrace")
*** Reached end of trace: (6, "traces/ocean_8t/ocean6.champsimtrace")
*** Reached end of trace: (3, "traces/ocean_8t/ocean3.champsimtrace")
*** Reached end of trace: (7, "traces/ocean_8t/ocean7.champsimtrace")
Heartbeat CPU 1 instructions: 250000029 cycles: 114811131 heartbeat IPC: 0.9378 cumulative IPC: 0.4131 (Simulation time: 07 hr 28 min 58 sec)
Heartbeat CPU 4 instructions: 460000008 cycles: 115011575 heartbeat IPC: 4 cumulative IPC: 4 (Simulation time: 07 hr 29 min 38 sec)
Heartbeat CPU 3 instructions: 460000006 cycles: 115011617 heartbeat IPC: 4 cumulative IPC: 4 (Simulation time: 07 hr 29 min 38 sec)
Heartbeat CPU 5 instructions: 460000009 cycles: 115011646 heartbeat IPC: 4 cumulative IPC: 4 (Simulation time: 07 hr 29 min 38 sec)
Heartbeat CPU 6 instructions: 460000003 cycles: 115011848 heartbeat IPC: 4 cumulative IPC: 4 (Simulation time: 07 hr 29 min 38 sec)
Heartbeat CPU 7 instructions: 460000004 cycles: 115011985 heartbeat IPC: 4 cumulative IPC: 4 (Simulation time: 07 hr 29 min 38 sec)
Heartbeat CPU 2 instructions: 460000007 cycles: 115014508 heartbeat IPC: 4 cumulative IPC: 4 (Simulation time: 07 hr 29 min 39 sec)
Heartbeat CPU 4 instructions: 470000008 cycles: 117511575 heartbeat IPC: 4 cumulative IPC: 4 (Simulation time: 07 hr 38 min 13 sec)
Heartbeat CPU 3 instructions: 470000006 cycles: 117511617 heartbeat IPC: 4 cumulative IPC: 4 (Simulation time: 07 hr 38 min 13 sec)
Heartbeat CPU 5 instructions: 470000009 cycles: 117511646 heartbeat IPC: 4 cumulative IPC: 4 (Simulation time: 07 hr 38 min 13 sec)
Heartbeat CPU 6 instructions: 470000003 cycles: 117511848 heartbeat IPC: 4 cumulative IPC: 4 (Simulation time: 07 hr 38 min 13 sec)
Heartbeat CPU 7 instructions: 470000004 cycles: 117511985 heartbeat IPC: 4 cumulative IPC: 4 (Simulation time: 07 hr 38 min 13 sec)
Heartbeat CPU 2 instructions: 470000007 cycles: 117514508 heartbeat IPC: 4 cumulative IPC: 4 (Simulation time: 07 hr 38 min 13 sec)
Heartbeat CPU 4 instructions: 480000008 cycles: 120011575 heartbeat IPC: 4 cumulative IPC: 4 (Simulation time: 07 hr 46 min 55 sec)
Heartbeat CPU 3 instructions: 480000006 cycles: 120011617 heartbeat IPC: 4 cumulative IPC: 4 (Simulation time: 07 hr 46 min 55 sec)
Heartbeat CPU 5 instructions: 480000009 cycles: 120011646 heartbeat IPC: 4 cumulative IPC: 4 (Simulation time: 07 hr 46 min 55 sec)
Heartbeat CPU 6 instructions: 480000003 cycles: 120011848 heartbeat IPC: 4 cumulative IPC: 4 (Simulation time: 07 hr 46 min 55 sec)
Heartbeat CPU 7 instructions: 480000004 cycles: 120011985 heartbeat IPC: 4 cumulative IPC: 4 (Simulation time: 07 hr 46 min 55 sec)
Heartbeat CPU 2 instructions: 480000007 cycles: 120014508 heartbeat IPC: 4 cumulative IPC: 4 (Simulation time: 07 hr 46 min 56 sec)
Heartbeat CPU 4 instructions: 490000008 cycles: 122511575 heartbeat IPC: 4 cumulative IPC: 4 (Simulation time: 07 hr 56 min 08 sec)
Heartbeat CPU 3 instructions: 490000006 cycles: 122511617 heartbeat IPC: 4 cumulative IPC: 4 (Simulation time: 07 hr 56 min 08 sec)
Heartbeat CPU 5 instructions: 490000009 cycles: 122511646 heartbeat IPC: 4 cumulative IPC: 4 (Simulation time: 07 hr 56 min 08 sec)
Heartbeat CPU 6 instructions: 490000003 cycles: 122511848 heartbeat IPC: 4 cumulative IPC: 4 (Simulation time: 07 hr 56 min 08 sec)
Heartbeat CPU 7 instructions: 490000004 cycles: 122511985 heartbeat IPC: 4 cumulative IPC: 4 (Simulation time: 07 hr 56 min 08 sec)
Heartbeat CPU 2 instructions: 490000007 cycles: 122514508 heartbeat IPC: 4 cumulative IPC: 4 (Simulation time: 07 hr 56 min 09 sec)
*** Reached end of trace: (2, "traces/ocean_8t/ocean2.champsimtrace")
*** Reached end of trace: (5, "traces/ocean_8t/ocean5.champsimtrace")
*** Reached end of trace: (4, "traces/ocean_8t/ocean4.champsimtrace")
*** Reached end of trace: (6, "traces/ocean_8t/ocean6.champsimtrace")
*** Reached end of trace: (3, "traces/ocean_8t/ocean3.champsimtrace")
Heartbeat CPU 4 instructions: 500000009 cycles: 125011608 heartbeat IPC: 4 cumulative IPC: 4 (Simulation time: 08 hr 05 min 24 sec)
Heartbeat CPU 3 instructions: 500000009 cycles: 125011632 heartbeat IPC: 4 cumulative IPC: 4 (Simulation time: 08 hr 05 min 24 sec)
Heartbeat CPU 5 instructions: 500000009 cycles: 125011667 heartbeat IPC: 4 cumulative IPC: 4 (Simulation time: 08 hr 05 min 24 sec)
Heartbeat CPU 6 instructions: 500000004 cycles: 125011881 heartbeat IPC: 4 cumulative IPC: 4 (Simulation time: 08 hr 05 min 24 sec)
Heartbeat CPU 7 instructions: 500000004 cycles: 125011985 heartbeat IPC: 4 cumulative IPC: 4 (Simulation time: 08 hr 05 min 25 sec)
Heartbeat CPU 2 instructions: 500000008 cycles: 125014551 heartbeat IPC: 4 cumulative IPC: 4 (Simulation time: 08 hr 05 min 25 sec)
*** Reached end of trace: (7, "traces/ocean_8t/ocean7.champsimtrace")
Heartbeat CPU 4 instructions: 510000009 cycles: 127511608 heartbeat IPC: 4 cumulative IPC: 4 (Simulation time: 08 hr 14 min 45 sec)
Heartbeat CPU 3 instructions: 510000009 cycles: 127511632 heartbeat IPC: 4 cumulative IPC: 4 (Simulation time: 08 hr 14 min 45 sec)
Heartbeat CPU 5 instructions: 510000009 cycles: 127511667 heartbeat IPC: 4 cumulative IPC: 4 (Simulation time: 08 hr 14 min 45 sec)
Heartbeat CPU 6 instructions: 510000004 cycles: 127511881 heartbeat IPC: 4 cumulative IPC: 4 (Simulation time: 08 hr 14 min 45 sec)
Heartbeat CPU 7 instructions: 510000006 cycles: 127512017 heartbeat IPC: 4 cumulative IPC: 4 (Simulation time: 08 hr 14 min 45 sec)
Heartbeat CPU 2 instructions: 510000008 cycles: 127514551 heartbeat IPC: 4 cumulative IPC: 4 (Simulation time: 08 hr 14 min 45 sec)
Heartbeat CPU 4 instructions: 520000009 cycles: 130011608 heartbeat IPC: 4 cumulative IPC: 4 (Simulation time: 08 hr 24 min 14 sec)
Heartbeat CPU 3 instructions: 520000009 cycles: 130011632 heartbeat IPC: 4 cumulative IPC: 4 (Simulation time: 08 hr 24 min 14 sec)
Heartbeat CPU 5 instructions: 520000009 cycles: 130011667 heartbeat IPC: 4 cumulative IPC: 4 (Simulation time: 08 hr 24 min 14 sec)
Heartbeat CPU 6 instructions: 520000004 cycles: 130011881 heartbeat IPC: 4 cumulative IPC: 4 (Simulation time: 08 hr 24 min 14 sec)
Heartbeat CPU 7 instructions: 520000006 cycles: 130012017 heartbeat IPC: 4 cumulative IPC: 4 (Simulation time: 08 hr 24 min 14 sec)
Heartbeat CPU 2 instructions: 520000008 cycles: 130014551 heartbeat IPC: 4 cumulative IPC: 4 (Simulation time: 08 hr 24 min 15 sec)
Simulation finished CPU 3 instructions: 100000001 cycles: 25000029 cumulative IPC: 4 (Simulation time: 08 hr 30 min 54 sec)
Simulation finished CPU 5 instructions: 100000000 cycles: 25000048 cumulative IPC: 4 (Simulation time: 08 hr 30 min 54 sec)
Simulation finished CPU 6 instructions: 100000001 cycles: 25000060 cumulative IPC: 4 (Simulation time: 08 hr 30 min 54 sec)
Simulation finished CPU 7 instructions: 100000003 cycles: 25000063 cumulative IPC: 4 (Simulation time: 08 hr 30 min 54 sec)
Simulation finished CPU 4 instructions: 100000003 cycles: 25000075 cumulative IPC: 4 (Simulation time: 08 hr 30 min 54 sec)
Simulation finished CPU 2 instructions: 100000002 cycles: 25000086 cumulative IPC: 4 (Simulation time: 08 hr 30 min 54 sec)
Heartbeat CPU 4 instructions: 530000009 cycles: 132511608 heartbeat IPC: 4 cumulative IPC: 4 (Simulation time: 08 hr 33 min 29 sec)
Heartbeat CPU 3 instructions: 530000009 cycles: 132511632 heartbeat IPC: 4 cumulative IPC: 4 (Simulation time: 08 hr 33 min 29 sec)
Heartbeat CPU 5 instructions: 530000009 cycles: 132511667 heartbeat IPC: 4 cumulative IPC: 4 (Simulation time: 08 hr 33 min 29 sec)
Heartbeat CPU 6 instructions: 530000004 cycles: 132511881 heartbeat IPC: 4 cumulative IPC: 4 (Simulation time: 08 hr 33 min 29 sec)
Heartbeat CPU 7 instructions: 530000006 cycles: 132512017 heartbeat IPC: 4 cumulative IPC: 4 (Simulation time: 08 hr 33 min 29 sec)
Heartbeat CPU 2 instructions: 530000008 cycles: 132514551 heartbeat IPC: 4 cumulative IPC: 4 (Simulation time: 08 hr 33 min 30 sec)
Heartbeat CPU 4 instructions: 540000009 cycles: 135011608 heartbeat IPC: 4 cumulative IPC: 4 (Simulation time: 08 hr 42 min 59 sec)
Heartbeat CPU 3 instructions: 540000009 cycles: 135011632 heartbeat IPC: 4 cumulative IPC: 4 (Simulation time: 08 hr 42 min 59 sec)
Heartbeat CPU 5 instructions: 540000009 cycles: 135011667 heartbeat IPC: 4 cumulative IPC: 4 (Simulation time: 08 hr 42 min 59 sec)
Heartbeat CPU 6 instructions: 540000004 cycles: 135011881 heartbeat IPC: 4 cumulative IPC: 4 (Simulation time: 08 hr 42 min 59 sec)
Heartbeat CPU 7 instructions: 540000006 cycles: 135012017 heartbeat IPC: 4 cumulative IPC: 4 (Simulation time: 08 hr 42 min 59 sec)
Heartbeat CPU 2 instructions: 540000008 cycles: 135014551 heartbeat IPC: 4 cumulative IPC: 4 (Simulation time: 08 hr 43 min 00 sec)
*** Reached end of trace: (2, "traces/ocean_8t/ocean2.champsimtrace")
*** Reached end of trace: (5, "traces/ocean_8t/ocean5.champsimtrace")
*** Reached end of trace: (4, "traces/ocean_8t/ocean4.champsimtrace")
*** Reached end of trace: (6, "traces/ocean_8t/ocean6.champsimtrace")
*** Reached end of trace: (3, "traces/ocean_8t/ocean3.champsimtrace")
*** Reached end of trace: (7, "traces/ocean_8t/ocean7.champsimtrace")
Heartbeat CPU 4 instructions: 550000010 cycles: 137511641 heartbeat IPC: 4 cumulative IPC: 4 (Simulation time: 08 hr 52 min 33 sec)
Heartbeat CPU 3 instructions: 550000012 cycles: 137511647 heartbeat IPC: 4 cumulative IPC: 4 (Simulation time: 08 hr 52 min 33 sec)
Heartbeat CPU 5 instructions: 550000009 cycles: 137511688 heartbeat IPC: 4 cumulative IPC: 4 (Simulation time: 08 hr 52 min 33 sec)
Heartbeat CPU 6 instructions: 550000005 cycles: 137511914 heartbeat IPC: 4 cumulative IPC: 4 (Simulation time: 08 hr 52 min 33 sec)
Heartbeat CPU 7 instructions: 550000008 cycles: 137512049 heartbeat IPC: 4 cumulative IPC: 4 (Simulation time: 08 hr 52 min 33 sec)
Heartbeat CPU 2 instructions: 550000009 cycles: 137514594 heartbeat IPC: 4 cumulative IPC: 4 (Simulation time: 08 hr 52 min 33 sec)
Heartbeat CPU 4 instructions: 560000010 cycles: 140011641 heartbeat IPC: 4 cumulative IPC: 4 (Simulation time: 09 hr 02 min 12 sec)
Heartbeat CPU 3 instructions: 560000012 cycles: 140011647 heartbeat IPC: 4 cumulative IPC: 4 (Simulation time: 09 hr 02 min 12 sec)
Heartbeat CPU 5 instructions: 560000009 cycles: 140011688 heartbeat IPC: 4 cumulative IPC: 4 (Simulation time: 09 hr 02 min 12 sec)
Heartbeat CPU 6 instructions: 560000005 cycles: 140011914 heartbeat IPC: 4 cumulative IPC: 4 (Simulation time: 09 hr 02 min 12 sec)
Heartbeat CPU 7 instructions: 560000008 cycles: 140012049 heartbeat IPC: 4 cumulative IPC: 4 (Simulation time: 09 hr 02 min 12 sec)
Heartbeat CPU 2 instructions: 560000009 cycles: 140014594 heartbeat IPC: 4 cumulative IPC: 4 (Simulation time: 09 hr 02 min 13 sec)
Heartbeat CPU 4 instructions: 570000010 cycles: 142511641 heartbeat IPC: 4 cumulative IPC: 4 (Simulation time: 09 hr 11 min 34 sec)
Heartbeat CPU 3 instructions: 570000012 cycles: 142511647 heartbeat IPC: 4 cumulative IPC: 4 (Simulation time: 09 hr 11 min 34 sec)
Heartbeat CPU 5 instructions: 570000009 cycles: 142511688 heartbeat IPC: 4 cumulative IPC: 4 (Simulation time: 09 hr 11 min 34 sec)
Heartbeat CPU 6 instructions: 570000005 cycles: 142511914 heartbeat IPC: 4 cumulative IPC: 4 (Simulation time: 09 hr 11 min 34 sec)
Heartbeat CPU 7 instructions: 570000008 cycles: 142512049 heartbeat IPC: 4 cumulative IPC: 4 (Simulation time: 09 hr 11 min 34 sec)
Heartbeat CPU 2 instructions: 570000009 cycles: 142514594 heartbeat IPC: 4 cumulative IPC: 4 (Simulation time: 09 hr 11 min 34 sec)
Heartbeat CPU 4 instructions: 580000010 cycles: 145011641 heartbeat IPC: 4 cumulative IPC: 4 (Simulation time: 09 hr 21 min 06 sec)
Heartbeat CPU 3 instructions: 580000012 cycles: 145011647 heartbeat IPC: 4 cumulative IPC: 4 (Simulation time: 09 hr 21 min 06 sec)
Heartbeat CPU 5 instructions: 580000009 cycles: 145011688 heartbeat IPC: 4 cumulative IPC: 4 (Simulation time: 09 hr 21 min 06 sec)
Heartbeat CPU 6 instructions: 580000005 cycles: 145011914 heartbeat IPC: 4 cumulative IPC: 4 (Simulation time: 09 hr 21 min 06 sec)
Heartbeat CPU 7 instructions: 580000008 cycles: 145012049 heartbeat IPC: 4 cumulative IPC: 4 (Simulation time: 09 hr 21 min 06 sec)
Heartbeat CPU 2 instructions: 580000009 cycles: 145014594 heartbeat IPC: 4 cumulative IPC: 4 (Simulation time: 09 hr 21 min 07 sec)
*** Reached end of trace: (2, "traces/ocean_8t/ocean2.champsimtrace")
*** Reached end of trace: (5, "traces/ocean_8t/ocean5.champsimtrace")
*** Reached end of trace: (4, "traces/ocean_8t/ocean4.champsimtrace")
*** Reached end of trace: (6, "traces/ocean_8t/ocean6.champsimtrace")
Heartbeat CPU 3 instructions: 590000012 cycles: 147511647 heartbeat IPC: 4 cumulative IPC: 4 (Simulation time: 09 hr 30 min 50 sec)
Heartbeat CPU 4 instructions: 590000011 cycles: 147511674 heartbeat IPC: 4 cumulative IPC: 4 (Simulation time: 09 hr 30 min 50 sec)
Heartbeat CPU 5 instructions: 590000009 cycles: 147511709 heartbeat IPC: 4 cumulative IPC: 4 (Simulation time: 09 hr 30 min 50 sec)
Heartbeat CPU 6 instructions: 590000006 cycles: 147511947 heartbeat IPC: 4 cumulative IPC: 4 (Simulation time: 09 hr 30 min 50 sec)
Heartbeat CPU 7 instructions: 590000008 cycles: 147512049 heartbeat IPC: 4 cumulative IPC: 4 (Simulation time: 09 hr 30 min 50 sec)
Heartbeat CPU 2 instructions: 590000010 cycles: 147514637 heartbeat IPC: 4 cumulative IPC: 4 (Simulation time: 09 hr 30 min 50 sec)
*** Reached end of trace: (3, "traces/ocean_8t/ocean3.champsimtrace")
*** Reached end of trace: (7, "traces/ocean_8t/ocean7.champsimtrace")
Heartbeat CPU 3 instructions: 600000015 cycles: 150011662 heartbeat IPC: 4 cumulative IPC: 4 (Simulation time: 09 hr 40 min 32 sec)
Heartbeat CPU 4 instructions: 600000011 cycles: 150011674 heartbeat IPC: 4 cumulative IPC: 4 (Simulation time: 09 hr 40 min 32 sec)
Heartbeat CPU 5 instructions: 600000009 cycles: 150011709 heartbeat IPC: 4 cumulative IPC: 4 (Simulation time: 09 hr 40 min 32 sec)
Heartbeat CPU 6 instructions: 600000006 cycles: 150011947 heartbeat IPC: 4 cumulative IPC: 4 (Simulation time: 09 hr 40 min 32 sec)
Heartbeat CPU 7 instructions: 600000010 cycles: 150012081 heartbeat IPC: 4 cumulative IPC: 4 (Simulation time: 09 hr 40 min 32 sec)
Heartbeat CPU 2 instructions: 600000010 cycles: 150014637 heartbeat IPC: 4 cumulative IPC: 4 (Simulation time: 09 hr 40 min 32 sec)
Heartbeat CPU 0 instructions: 60000011 cycles: 150083359 heartbeat IPC: 0.2311 cumulative IPC: 0.2311 (Simulation time: 09 hr 40 min 47 sec)
Heartbeat CPU 1 instructions: 260000031 cycles: 151725971 heartbeat IPC: 0.2709 cumulative IPC: 0.2962 (Simulation time: 09 hr 46 min 55 sec)
Heartbeat CPU 3 instructions: 610000015 cycles: 152511662 heartbeat IPC: 4 cumulative IPC: 4 (Simulation time: 09 hr 49 min 50 sec)
Heartbeat CPU 4 instructions: 610000011 cycles: 152511674 heartbeat IPC: 4 cumulative IPC: 4 (Simulation time: 09 hr 49 min 50 sec)
Heartbeat CPU 5 instructions: 610000009 cycles: 152511709 heartbeat IPC: 4 cumulative IPC: 4 (Simulation time: 09 hr 49 min 50 sec)
Heartbeat CPU 6 instructions: 610000006 cycles: 152511947 heartbeat IPC: 4 cumulative IPC: 4 (Simulation time: 09 hr 49 min 50 sec)
Heartbeat CPU 7 instructions: 610000010 cycles: 152512081 heartbeat IPC: 4 cumulative IPC: 4 (Simulation time: 09 hr 49 min 50 sec)
Heartbeat CPU 2 instructions: 610000010 cycles: 152514637 heartbeat IPC: 4 cumulative IPC: 4 (Simulation time: 09 hr 49 min 51 sec)
Heartbeat CPU 3 instructions: 620000015 cycles: 155011662 heartbeat IPC: 4 cumulative IPC: 4 (Simulation time: 09 hr 59 min 24 sec)
Heartbeat CPU 4 instructions: 620000011 cycles: 155011674 heartbeat IPC: 4 cumulative IPC: 4 (Simulation time: 09 hr 59 min 24 sec)
Heartbeat CPU 5 instructions: 620000009 cycles: 155011709 heartbeat IPC: 4 cumulative IPC: 4 (Simulation time: 09 hr 59 min 24 sec)
Heartbeat CPU 6 instructions: 620000006 cycles: 155011947 heartbeat IPC: 4 cumulative IPC: 4 (Simulation time: 09 hr 59 min 24 sec)
Heartbeat CPU 7 instructions: 620000010 cycles: 155012081 heartbeat IPC: 4 cumulative IPC: 4 (Simulation time: 09 hr 59 min 24 sec)
Heartbeat CPU 2 instructions: 620000010 cycles: 155014637 heartbeat IPC: 4 cumulative IPC: 4 (Simulation time: 09 hr 59 min 25 sec)
Heartbeat CPU 3 instructions: 630000015 cycles: 157511662 heartbeat IPC: 4 cumulative IPC: 4 (Simulation time: 10 hr 09 min 24 sec)
Heartbeat CPU 4 instructions: 630000011 cycles: 157511674 heartbeat IPC: 4 cumulative IPC: 4 (Simulation time: 10 hr 09 min 24 sec)
Heartbeat CPU 5 instructions: 630000009 cycles: 157511709 heartbeat IPC: 4 cumulative IPC: 4 (Simulation time: 10 hr 09 min 24 sec)
Heartbeat CPU 6 instructions: 630000006 cycles: 157511947 heartbeat IPC: 4 cumulative IPC: 4 (Simulation time: 10 hr 09 min 24 sec)
Heartbeat CPU 7 instructions: 630000010 cycles: 157512081 heartbeat IPC: 4 cumulative IPC: 4 (Simulation time: 10 hr 09 min 24 sec)
Heartbeat CPU 2 instructions: 630000010 cycles: 157514637 heartbeat IPC: 4 cumulative IPC: 4 (Simulation time: 10 hr 09 min 25 sec)
*** Reached end of trace: (2, "traces/ocean_8t/ocean2.champsimtrace")
*** Reached end of trace: (5, "traces/ocean_8t/ocean5.champsimtrace")
*** Reached end of trace: (4, "traces/ocean_8t/ocean4.champsimtrace")
*** Reached end of trace: (6, "traces/ocean_8t/ocean6.champsimtrace")
*** Reached end of trace: (3, "traces/ocean_8t/ocean3.champsimtrace")
*** Reached end of trace: (7, "traces/ocean_8t/ocean7.champsimtrace")
Heartbeat CPU 3 instructions: 640000018 cycles: 160011677 heartbeat IPC: 4 cumulative IPC: 4 (Simulation time: 10 hr 19 min 16 sec)
Heartbeat CPU 4 instructions: 640000012 cycles: 160011707 heartbeat IPC: 4 cumulative IPC: 4 (Simulation time: 10 hr 19 min 16 sec)
Heartbeat CPU 5 instructions: 640000009 cycles: 160011730 heartbeat IPC: 4 cumulative IPC: 4 (Simulation time: 10 hr 19 min 16 sec)
Heartbeat CPU 6 instructions: 640000007 cycles: 160011980 heartbeat IPC: 4 cumulative IPC: 4 (Simulation time: 10 hr 19 min 16 sec)
Heartbeat CPU 7 instructions: 640000012 cycles: 160012113 heartbeat IPC: 4 cumulative IPC: 4 (Simulation time: 10 hr 19 min 16 sec)
Heartbeat CPU 2 instructions: 640000011 cycles: 160014680 heartbeat IPC: 4 cumulative IPC: 4 (Simulation time: 10 hr 19 min 17 sec)
Heartbeat CPU 3 instructions: 650000018 cycles: 162511677 heartbeat IPC: 4 cumulative IPC: 4 (Simulation time: 10 hr 28 min 36 sec)
Heartbeat CPU 4 instructions: 650000012 cycles: 162511707 heartbeat IPC: 4 cumulative IPC: 4 (Simulation time: 10 hr 28 min 36 sec)
Heartbeat CPU 5 instructions: 650000009 cycles: 162511730 heartbeat IPC: 4 cumulative IPC: 4 (Simulation time: 10 hr 28 min 36 sec)
Heartbeat CPU 6 instructions: 650000007 cycles: 162511980 heartbeat IPC: 4 cumulative IPC: 4 (Simulation time: 10 hr 28 min 36 sec)
Heartbeat CPU 7 instructions: 650000012 cycles: 162512113 heartbeat IPC: 4 cumulative IPC: 4 (Simulation time: 10 hr 28 min 36 sec)
Heartbeat CPU 2 instructions: 650000011 cycles: 162514680 heartbeat IPC: 4 cumulative IPC: 4 (Simulation time: 10 hr 28 min 36 sec)
Heartbeat CPU 3 instructions: 660000018 cycles: 165011677 heartbeat IPC: 4 cumulative IPC: 4 (Simulation time: 10 hr 37 min 45 sec)
Heartbeat CPU 4 instructions: 660000012 cycles: 165011707 heartbeat IPC: 4 cumulative IPC: 4 (Simulation time: 10 hr 37 min 45 sec)
Heartbeat CPU 5 instructions: 660000009 cycles: 165011730 heartbeat IPC: 4 cumulative IPC: 4 (Simulation time: 10 hr 37 min 45 sec)
Heartbeat CPU 6 instructions: 660000007 cycles: 165011980 heartbeat IPC: 4 cumulative IPC: 4 (Simulation time: 10 hr 37 min 45 sec)
Heartbeat CPU 7 instructions: 660000012 cycles: 165012113 heartbeat IPC: 4 cumulative IPC: 4 (Simulation time: 10 hr 37 min 45 sec)
Heartbeat CPU 2 instructions: 660000011 cycles: 165014680 heartbeat IPC: 4 cumulative IPC: 4 (Simulation time: 10 hr 37 min 45 sec)
Heartbeat CPU 3 instructions: 670000018 cycles: 167511677 heartbeat IPC: 4 cumulative IPC: 4 (Simulation time: 10 hr 46 min 42 sec)
Heartbeat CPU 4 instructions: 670000012 cycles: 167511707 heartbeat IPC: 4 cumulative IPC: 4 (Simulation time: 10 hr 46 min 42 sec)
Heartbeat CPU 5 instructions: 670000009 cycles: 167511730 heartbeat IPC: 4 cumulative IPC: 4 (Simulation time: 10 hr 46 min 42 sec)
Heartbeat CPU 6 instructions: 670000007 cycles: 167511980 heartbeat IPC: 4 cumulative IPC: 4 (Simulation time: 10 hr 46 min 42 sec)
Heartbeat CPU 7 instructions: 670000012 cycles: 167512113 heartbeat IPC: 4 cumulative IPC: 4 (Simulation time: 10 hr 46 min 42 sec)
Heartbeat CPU 2 instructions: 670000011 cycles: 167514680 heartbeat IPC: 4 cumulative IPC: 4 (Simulation time: 10 hr 46 min 42 sec)
*** Reached end of trace: (2, "traces/ocean_8t/ocean2.champsimtrace")
*** Reached end of trace: (5, "traces/ocean_8t/ocean5.champsimtrace")
*** Reached end of trace: (4, "traces/ocean_8t/ocean4.champsimtrace")
*** Reached end of trace: (6, "traces/ocean_8t/ocean6.champsimtrace")
Heartbeat CPU 3 instructions: 680000018 cycles: 170011677 heartbeat IPC: 4 cumulative IPC: 4 (Simulation time: 10 hr 55 min 30 sec)
Heartbeat CPU 4 instructions: 680000013 cycles: 170011740 heartbeat IPC: 4 cumulative IPC: 4 (Simulation time: 10 hr 55 min 30 sec)
Heartbeat CPU 5 instructions: 680000009 cycles: 170011751 heartbeat IPC: 4 cumulative IPC: 4 (Simulation time: 10 hr 55 min 30 sec)
Heartbeat CPU 6 instructions: 680000008 cycles: 170012013 heartbeat IPC: 4 cumulative IPC: 4 (Simulation time: 10 hr 55 min 30 sec)
Heartbeat CPU 7 instructions: 680000012 cycles: 170012113 heartbeat IPC: 4 cumulative IPC: 4 (Simulation time: 10 hr 55 min 30 sec)
Heartbeat CPU 2 instructions: 680000012 cycles: 170014723 heartbeat IPC: 4 cumulative IPC: 4 (Simulation time: 10 hr 55 min 31 sec)
*** Reached end of trace: (3, "traces/ocean_8t/ocean3.champsimtrace")
*** Reached end of trace: (7, "traces/ocean_8t/ocean7.champsimtrace")
Heartbeat CPU 3 instructions: 690000021 cycles: 172511692 heartbeat IPC: 4 cumulative IPC: 4 (Simulation time: 11 hr 04 min 21 sec)
Heartbeat CPU 4 instructions: 690000013 cycles: 172511740 heartbeat IPC: 4 cumulative IPC: 4 (Simulation time: 11 hr 04 min 21 sec)
Heartbeat CPU 5 instructions: 690000009 cycles: 172511751 heartbeat IPC: 4 cumulative IPC: 4 (Simulation time: 11 hr 04 min 21 sec)
Heartbeat CPU 6 instructions: 690000008 cycles: 172512013 heartbeat IPC: 4 cumulative IPC: 4 (Simulation time: 11 hr 04 min 21 sec)
Heartbeat CPU 7 instructions: 690000014 cycles: 172512145 heartbeat IPC: 4 cumulative IPC: 4 (Simulation time: 11 hr 04 min 21 sec)
Heartbeat CPU 2 instructions: 690000012 cycles: 172514723 heartbeat IPC: 4 cumulative IPC: 4 (Simulation time: 11 hr 04 min 21 sec)
Heartbeat CPU 3 instructions: 700000021 cycles: 175011692 heartbeat IPC: 4 cumulative IPC: 4 (Simulation time: 11 hr 13 min 01 sec)
Heartbeat CPU 4 instructions: 700000013 cycles: 175011740 heartbeat IPC: 4 cumulative IPC: 4 (Simulation time: 11 hr 13 min 01 sec)
Heartbeat CPU 5 instructions: 700000009 cycles: 175011751 heartbeat IPC: 4 cumulative IPC: 4 (Simulation time: 11 hr 13 min 01 sec)
Heartbeat CPU 6 instructions: 700000008 cycles: 175012013 heartbeat IPC: 4 cumulative IPC: 4 (Simulation time: 11 hr 13 min 01 sec)
Heartbeat CPU 7 instructions: 700000014 cycles: 175012145 heartbeat IPC: 4 cumulative IPC: 4 (Simulation time: 11 hr 13 min 01 sec)
Heartbeat CPU 2 instructions: 700000012 cycles: 175014723 heartbeat IPC: 4 cumulative IPC: 4 (Simulation time: 11 hr 13 min 02 sec)
Heartbeat CPU 3 instructions: 710000021 cycles: 177511692 heartbeat IPC: 4 cumulative IPC: 4 (Simulation time: 11 hr 21 min 48 sec)
Heartbeat CPU 4 instructions: 710000013 cycles: 177511740 heartbeat IPC: 4 cumulative IPC: 4 (Simulation time: 11 hr 21 min 48 sec)
Heartbeat CPU 5 instructions: 710000009 cycles: 177511751 heartbeat IPC: 4 cumulative IPC: 4 (Simulation time: 11 hr 21 min 48 sec)
Heartbeat CPU 6 instructions: 710000008 cycles: 177512013 heartbeat IPC: 4 cumulative IPC: 4 (Simulation time: 11 hr 21 min 48 sec)
Heartbeat CPU 7 instructions: 710000014 cycles: 177512145 heartbeat IPC: 4 cumulative IPC: 4 (Simulation time: 11 hr 21 min 48 sec)
Heartbeat CPU 2 instructions: 710000012 cycles: 177514723 heartbeat IPC: 4 cumulative IPC: 4 (Simulation time: 11 hr 21 min 48 sec)
Heartbeat CPU 3 instructions: 720000021 cycles: 180011692 heartbeat IPC: 4 cumulative IPC: 4 (Simulation time: 11 hr 30 min 33 sec)
Heartbeat CPU 4 instructions: 720000013 cycles: 180011740 heartbeat IPC: 4 cumulative IPC: 4 (Simulation time: 11 hr 30 min 33 sec)
Heartbeat CPU 5 instructions: 720000009 cycles: 180011751 heartbeat IPC: 4 cumulative IPC: 4 (Simulation time: 11 hr 30 min 33 sec)
Heartbeat CPU 6 instructions: 720000008 cycles: 180012013 heartbeat IPC: 4 cumulative IPC: 4 (Simulation time: 11 hr 30 min 33 sec)
Heartbeat CPU 7 instructions: 720000014 cycles: 180012145 heartbeat IPC: 4 cumulative IPC: 4 (Simulation time: 11 hr 30 min 33 sec)
Heartbeat CPU 2 instructions: 720000012 cycles: 180014723 heartbeat IPC: 4 cumulative IPC: 4 (Simulation time: 11 hr 30 min 33 sec)
*** Reached end of trace: (2, "traces/ocean_8t/ocean2.champsimtrace")
*** Reached end of trace: (5, "traces/ocean_8t/ocean5.champsimtrace")
*** Reached end of trace: (4, "traces/ocean_8t/ocean4.champsimtrace")
*** Reached end of trace: (6, "traces/ocean_8t/ocean6.champsimtrace")
*** Reached end of trace: (3, "traces/ocean_8t/ocean3.champsimtrace")
*** Reached end of trace: (7, "traces/ocean_8t/ocean7.champsimtrace")
Heartbeat CPU 3 instructions: 730000024 cycles: 182511707 heartbeat IPC: 4 cumulative IPC: 4 (Simulation time: 11 hr 39 min 35 sec)
Heartbeat CPU 5 instructions: 730000009 cycles: 182511772 heartbeat IPC: 4 cumulative IPC: 4 (Simulation time: 11 hr 39 min 35 sec)
Heartbeat CPU 4 instructions: 730000014 cycles: 182511773 heartbeat IPC: 4 cumulative IPC: 4 (Simulation time: 11 hr 39 min 35 sec)
Heartbeat CPU 6 instructions: 730000009 cycles: 182512046 heartbeat IPC: 4 cumulative IPC: 4 (Simulation time: 11 hr 39 min 35 sec)
Heartbeat CPU 7 instructions: 730000016 cycles: 182512177 heartbeat IPC: 4 cumulative IPC: 4 (Simulation time: 11 hr 39 min 35 sec)
Heartbeat CPU 2 instructions: 730000013 cycles: 182514766 heartbeat IPC: 4 cumulative IPC: 4 (Simulation time: 11 hr 39 min 35 sec)
Heartbeat CPU 3 instructions: 740000024 cycles: 185011707 heartbeat IPC: 4 cumulative IPC: 4 (Simulation time: 11 hr 48 min 44 sec)
Heartbeat CPU 5 instructions: 740000009 cycles: 185011772 heartbeat IPC: 4 cumulative IPC: 4 (Simulation time: 11 hr 48 min 44 sec)
Heartbeat CPU 4 instructions: 740000014 cycles: 185011773 heartbeat IPC: 4 cumulative IPC: 4 (Simulation time: 11 hr 48 min 44 sec)
Heartbeat CPU 6 instructions: 740000009 cycles: 185012046 heartbeat IPC: 4 cumulative IPC: 4 (Simulation time: 11 hr 48 min 44 sec)
Heartbeat CPU 7 instructions: 740000016 cycles: 185012177 heartbeat IPC: 4 cumulative IPC: 4 (Simulation time: 11 hr 48 min 44 sec)
Heartbeat CPU 2 instructions: 740000013 cycles: 185014766 heartbeat IPC: 4 cumulative IPC: 4 (Simulation time: 11 hr 48 min 45 sec)
Heartbeat CPU 1 instructions: 270000031 cycles: 186510533 heartbeat IPC: 0.2875 cumulative IPC: 0.2924 (Simulation time: 11 hr 54 min 19 sec)
Heartbeat CPU 3 instructions: 750000024 cycles: 187511707 heartbeat IPC: 4 cumulative IPC: 4 (Simulation time: 11 hr 58 min 01 sec)
Heartbeat CPU 5 instructions: 750000009 cycles: 187511772 heartbeat IPC: 4 cumulative IPC: 4 (Simulation time: 11 hr 58 min 01 sec)
Heartbeat CPU 4 instructions: 750000014 cycles: 187511773 heartbeat IPC: 4 cumulative IPC: 4 (Simulation time: 11 hr 58 min 01 sec)
Heartbeat CPU 6 instructions: 750000009 cycles: 187512046 heartbeat IPC: 4 cumulative IPC: 4 (Simulation time: 11 hr 58 min 01 sec)
Heartbeat CPU 7 instructions: 750000016 cycles: 187512177 heartbeat IPC: 4 cumulative IPC: 4 (Simulation time: 11 hr 58 min 01 sec)
Heartbeat CPU 2 instructions: 750000013 cycles: 187514766 heartbeat IPC: 4 cumulative IPC: 4 (Simulation time: 11 hr 58 min 02 sec)
Heartbeat CPU 3 instructions: 760000024 cycles: 190011707 heartbeat IPC: 4 cumulative IPC: 4 (Simulation time: 12 hr 07 min 04 sec)
Heartbeat CPU 5 instructions: 760000009 cycles: 190011772 heartbeat IPC: 4 cumulative IPC: 4 (Simulation time: 12 hr 07 min 04 sec)
Heartbeat CPU 4 instructions: 760000014 cycles: 190011773 heartbeat IPC: 4 cumulative IPC: 4 (Simulation time: 12 hr 07 min 04 sec)
Heartbeat CPU 6 instructions: 760000009 cycles: 190012046 heartbeat IPC: 4 cumulative IPC: 4 (Simulation time: 12 hr 07 min 04 sec)
Heartbeat CPU 7 instructions: 760000016 cycles: 190012177 heartbeat IPC: 4 cumulative IPC: 4 (Simulation time: 12 hr 07 min 04 sec)
Heartbeat CPU 2 instructions: 760000013 cycles: 190014766 heartbeat IPC: 4 cumulative IPC: 4 (Simulation time: 12 hr 07 min 05 sec)
*** Reached end of trace: (2, "traces/ocean_8t/ocean2.champsimtrace")
*** Reached end of trace: (5, "traces/ocean_8t/ocean5.champsimtrace")
*** Reached end of trace: (4, "traces/ocean_8t/ocean4.champsimtrace")
*** Reached end of trace: (6, "traces/ocean_8t/ocean6.champsimtrace")
Heartbeat CPU 3 instructions: 770000024 cycles: 192511707 heartbeat IPC: 4 cumulative IPC: 4 (Simulation time: 12 hr 16 min 17 sec)
Heartbeat CPU 5 instructions: 770000009 cycles: 192511793 heartbeat IPC: 4 cumulative IPC: 4 (Simulation time: 12 hr 16 min 17 sec)
Heartbeat CPU 4 instructions: 770000015 cycles: 192511806 heartbeat IPC: 4 cumulative IPC: 4 (Simulation time: 12 hr 16 min 17 sec)
Heartbeat CPU 6 instructions: 770000010 cycles: 192512079 heartbeat IPC: 4 cumulative IPC: 4 (Simulation time: 12 hr 16 min 17 sec)
Heartbeat CPU 7 instructions: 770000016 cycles: 192512177 heartbeat IPC: 4 cumulative IPC: 4 (Simulation time: 12 hr 16 min 17 sec)
Heartbeat CPU 2 instructions: 770000014 cycles: 192514809 heartbeat IPC: 4 cumulative IPC: 4 (Simulation time: 12 hr 16 min 18 sec)
*** Reached end of trace: (1, "traces/ocean_8t/ocean1.champsimtrace")
*** Reached end of trace: (3, "traces/ocean_8t/ocean3.champsimtrace")
*** Reached end of trace: (7, "traces/ocean_8t/ocean7.champsimtrace")
Heartbeat CPU 3 instructions: 780000027 cycles: 195011722 heartbeat IPC: 4 cumulative IPC: 4 (Simulation time: 12 hr 25 min 49 sec)
Heartbeat CPU 5 instructions: 780000009 cycles: 195011793 heartbeat IPC: 4 cumulative IPC: 4 (Simulation time: 12 hr 25 min 49 sec)
Heartbeat CPU 4 instructions: 780000015 cycles: 195011806 heartbeat IPC: 4 cumulative IPC: 4 (Simulation time: 12 hr 25 min 49 sec)
Heartbeat CPU 6 instructions: 780000010 cycles: 195012079 heartbeat IPC: 4 cumulative IPC: 4 (Simulation time: 12 hr 25 min 49 sec)
Heartbeat CPU 7 instructions: 780000018 cycles: 195012209 heartbeat IPC: 4 cumulative IPC: 4 (Simulation time: 12 hr 25 min 49 sec)
Heartbeat CPU 2 instructions: 780000014 cycles: 195014809 heartbeat IPC: 4 cumulative IPC: 4 (Simulation time: 12 hr 25 min 50 sec)
Heartbeat CPU 3 instructions: 790000027 cycles: 197511722 heartbeat IPC: 4 cumulative IPC: 4 (Simulation time: 12 hr 35 min 28 sec)
Heartbeat CPU 5 instructions: 790000009 cycles: 197511793 heartbeat IPC: 4 cumulative IPC: 4 (Simulation time: 12 hr 35 min 28 sec)
Heartbeat CPU 4 instructions: 790000015 cycles: 197511806 heartbeat IPC: 4 cumulative IPC: 4 (Simulation time: 12 hr 35 min 28 sec)
Heartbeat CPU 6 instructions: 790000010 cycles: 197512079 heartbeat IPC: 4 cumulative IPC: 4 (Simulation time: 12 hr 35 min 28 sec)
Heartbeat CPU 7 instructions: 790000018 cycles: 197512209 heartbeat IPC: 4 cumulative IPC: 4 (Simulation time: 12 hr 35 min 28 sec)
Heartbeat CPU 2 instructions: 790000014 cycles: 197514809 heartbeat IPC: 4 cumulative IPC: 4 (Simulation time: 12 hr 35 min 29 sec)
Heartbeat CPU 1 instructions: 280000032 cycles: 198982948 heartbeat IPC: 0.8018 cumulative IPC: 0.3613 (Simulation time: 12 hr 41 min 06 sec)
Heartbeat CPU 3 instructions: 800000027 cycles: 200011722 heartbeat IPC: 4 cumulative IPC: 4 (Simulation time: 12 hr 45 min 01 sec)
Heartbeat CPU 5 instructions: 800000009 cycles: 200011793 heartbeat IPC: 4 cumulative IPC: 4 (Simulation time: 12 hr 45 min 01 sec)
Heartbeat CPU 4 instructions: 800000015 cycles: 200011806 heartbeat IPC: 4 cumulative IPC: 4 (Simulation time: 12 hr 45 min 01 sec)
Heartbeat CPU 6 instructions: 800000010 cycles: 200012079 heartbeat IPC: 4 cumulative IPC: 4 (Simulation time: 12 hr 45 min 01 sec)
Heartbeat CPU 7 instructions: 800000018 cycles: 200012209 heartbeat IPC: 4 cumulative IPC: 4 (Simulation time: 12 hr 45 min 01 sec)
Heartbeat CPU 2 instructions: 800000014 cycles: 200014809 heartbeat IPC: 4 cumulative IPC: 4 (Simulation time: 12 hr 45 min 02 sec)
Heartbeat CPU 3 instructions: 810000027 cycles: 202511722 heartbeat IPC: 4 cumulative IPC: 4 (Simulation time: 12 hr 54 min 19 sec)
Heartbeat CPU 5 instructions: 810000009 cycles: 202511793 heartbeat IPC: 4 cumulative IPC: 4 (Simulation time: 12 hr 54 min 19 sec)
Heartbeat CPU 4 instructions: 810000015 cycles: 202511806 heartbeat IPC: 4 cumulative IPC: 4 (Simulation time: 12 hr 54 min 19 sec)
Heartbeat CPU 6 instructions: 810000010 cycles: 202512079 heartbeat IPC: 4 cumulative IPC: 4 (Simulation time: 12 hr 54 min 19 sec)
[...]
cpu4->cpu4_ITLB RFO          ACCESS:          0 HIT:          0 MISS:          0 MSHR_MERGE:          0
cpu4->cpu4_ITLB PREFETCH     ACCESS:          0 HIT:          0 MISS:          0 MSHR_MERGE:          0
cpu4->cpu4_ITLB WRITE        ACCESS:          0 HIT:          0 MISS:          0 MSHR_MERGE:          0
cpu4->cpu4_ITLB TRANSLATION  ACCESS:          0 HIT:          0 MISS:          0 MSHR_MERGE:          0
cpu4->cpu4_ITLB PREFETCH REQUESTED:          0 ISSUED:          0 USEFUL:          0 USELESS:          0
cpu4->cpu4_ITLB AVERAGE MISS LATENCY: 3.859 cycles
cpu4_ITLB COHERENCE INVALIDATIONS:          0
cpu4_ITLB COHERENCE WRITE-HIT OTHER-SHARER EVENTS:          0
cpu4_DTLB COHERENCE INVALIDATIONS:          0
cpu4_DTLB COHERENCE WRITE-HIT OTHER-SHARER EVENTS:          0
cpu3->cpu3_STLB TOTAL        ACCESS:        768 HIT:        768 MISS:          0 MSHR_MERGE:          0
cpu3->cpu3_STLB LOAD         ACCESS:        768 HIT:        768 MISS:          0 MSHR_MERGE:          0
cpu3->cpu3_STLB RFO          ACCESS:          0 HIT:          0 MISS:          0 MSHR_MERGE:          0
cpu3->cpu3_STLB PREFETCH     ACCESS:          0 HIT:          0 MISS:          0 MSHR_MERGE:          0
cpu3->cpu3_STLB WRITE        ACCESS:          0 HIT:          0 MISS:          0 MSHR_MERGE:          0
cpu3->cpu3_STLB TRANSLATION  ACCESS:          0 HIT:          0 MISS:          0 MSHR_MERGE:          0
cpu3->cpu3_STLB PREFETCH REQUESTED:          0 ISSUED:          0 USEFUL:          0 USELESS:          0
cpu3->cpu3_STLB AVERAGE MISS LATENCY: - cycles
cpu3_STLB COHERENCE INVALIDATIONS:          0
cpu3_STLB COHERENCE WRITE-HIT OTHER-SHARER EVENTS:          0
cpu3->cpu3_L2C TOTAL        ACCESS:      75774 HIT:      75774 MISS:          0 MSHR_MERGE:          0
cpu3->cpu3_L2C LOAD         ACCESS:      75774 HIT:      75774 MISS:          0 MSHR_MERGE:          0
cpu3->cpu3_L2C RFO          ACCESS:          0 HIT:          0 MISS:          0 MSHR_MERGE:          0
cpu3->cpu3_L2C PREFETCH     ACCESS:          0 HIT:          0 MISS:          0 MSHR_MERGE:          0
cpu3->cpu3_L2C WRITE        ACCESS:          0 HIT:          0 MISS:          0 MSHR_MERGE:          0
cpu3->cpu3_L2C TRANSLATION  ACCESS:          0 HIT:          0 MISS:          0 MSHR_MERGE:          0
cpu3->cpu3_L2C PREFETCH REQUESTED:          0 ISSUED:          0 USEFUL:          0 USELESS:          0
cpu3->cpu3_L2C AVERAGE MISS LATENCY: - cycles
cpu3_L2C COHERENCE INVALIDATIONS:          0
cpu3_L2C COHERENCE WRITE-HIT OTHER-SHARER EVENTS:          0
cpu3->cpu3_L1I TOTAL        ACCESS:  345486465 HIT:  345372823 MISS:     113642 MSHR_MERGE:      37868
cpu3->cpu3_L1I LOAD         ACCESS:  345486465 HIT:  345372823 MISS:     113642 MSHR_MERGE:      37868
cpu3->cpu3_L1I RFO          ACCESS:          0 HIT:          0 MISS:          0 MSHR_MERGE:          0
cpu3->cpu3_L1I PREFETCH     ACCESS:          0 HIT:          0 MISS:          0 MSHR_MERGE:          0
cpu3->cpu3_L1I WRITE        ACCESS:          0 HIT:          0 MISS:          0 MSHR_MERGE:          0
cpu3->cpu3_L1I TRANSLATION  ACCESS:          0 HIT:          0 MISS:          0 MSHR_MERGE:          0
cpu3->cpu3_L1I PREFETCH REQUESTED:          0 ISSUED:          0 USEFUL:          0 USELESS:          0
cpu3->cpu3_L1I AVERAGE MISS LATENCY: 7 cycles
cpu3_L1I COHERENCE INVALIDATIONS:          0
cpu3_L1I COHERENCE WRITE-HIT OTHER-SHARER EVENTS:          0
cpu3_L1D COHERENCE INVALIDATIONS:          0
cpu3_L1D COHERENCE WRITE-HIT OTHER-SHARER EVENTS:          0
cpu3->cpu3_ITLB TOTAL        ACCESS:  273589632 HIT:  273588192 MISS:       1440 MSHR_MERGE:        672
cpu3->cpu3_ITLB LOAD         ACCESS:  273589632 HIT:  273588192 MISS:       1440 MSHR_MERGE:        672
cpu3->cpu3_ITLB RFO          ACCESS:          0 HIT:          0 MISS:          0 MSHR_MERGE:          0
cpu3->cpu3_ITLB PREFETCH     ACCESS:          0 HIT:          0 MISS:          0 MSHR_MERGE:          0
cpu3->cpu3_ITLB WRITE        ACCESS:          0 HIT:          0 MISS:          0 MSHR_MERGE:          0
cpu3->cpu3_ITLB TRANSLATION  ACCESS:          0 HIT:          0 MISS:          0 MSHR_MERGE:          0
cpu3->cpu3_ITLB PREFETCH REQUESTED:          0 ISSUED:          0 USEFUL:          0 USELESS:          0
cpu3->cpu3_ITLB AVERAGE MISS LATENCY: 4 cycles
cpu3_ITLB COHERENCE INVALIDATIONS:          0
cpu3_ITLB COHERENCE WRITE-HIT OTHER-SHARER EVENTS:          0
cpu3_DTLB COHERENCE INVALIDATIONS:          0
cpu3_DTLB COHERENCE WRITE-HIT OTHER-SHARER EVENTS:          0
cpu2->cpu2_STLB TOTAL        ACCESS:        783 HIT:        783 MISS:          0 MSHR_MERGE:          0
cpu2->cpu2_STLB LOAD         ACCESS:        783 HIT:        783 MISS:          0 MSHR_MERGE:          0
cpu2->cpu2_STLB RFO          ACCESS:          0 HIT:          0 MISS:          0 MSHR_MERGE:          0
cpu2->cpu2_STLB PREFETCH     ACCESS:          0 HIT:          0 MISS:          0 MSHR_MERGE:          0
cpu2->cpu2_STLB WRITE        ACCESS:          0 HIT:          0 MISS:          0 MSHR_MERGE:          0
cpu2->cpu2_STLB TRANSLATION  ACCESS:          0 HIT:          0 MISS:          0 MSHR_MERGE:          0
cpu2->cpu2_STLB PREFETCH REQUESTED:          0 ISSUED:          0 USEFUL:          0 USELESS:          0
cpu2->cpu2_STLB AVERAGE MISS LATENCY: - cycles
cpu2_STLB COHERENCE INVALIDATIONS:          0
cpu2_STLB COHERENCE WRITE-HIT OTHER-SHARER EVENTS:          0
cpu2->cpu2_L2C TOTAL        ACCESS:      80623 HIT:      80623 MISS:          0 MSHR_MERGE:          0
cpu2->cpu2_L2C LOAD         ACCESS:      80623 HIT:      80623 MISS:          0 MSHR_MERGE:          0
cpu2->cpu2_L2C RFO          ACCESS:          0 HIT:          0 MISS:          0 MSHR_MERGE:          0
cpu2->cpu2_L2C PREFETCH     ACCESS:          0 HIT:          0 MISS:          0 MSHR_MERGE:          0
cpu2->cpu2_L2C WRITE        ACCESS:          0 HIT:          0 MISS:          0 MSHR_MERGE:          0
cpu2->cpu2_L2C TRANSLATION  ACCESS:          0 HIT:          0 MISS:          0 MSHR_MERGE:          0
cpu2->cpu2_L2C PREFETCH REQUESTED:          0 ISSUED:          0 USEFUL:          0 USELESS:          0
cpu2->cpu2_L2C AVERAGE MISS LATENCY: - cycles
cpu2_L2C COHERENCE INVALIDATIONS:          0
cpu2_L2C COHERENCE WRITE-HIT OTHER-SHARER EVENTS:          0
cpu2->cpu2_L1I TOTAL        ACCESS:  315600886 HIT:  315485113 MISS:     115773 MSHR_MERGE:      35150
cpu2->cpu2_L1I LOAD         ACCESS:  315600886 HIT:  315485113 MISS:     115773 MSHR_MERGE:      35150
cpu2->cpu2_L1I RFO          ACCESS:          0 HIT:          0 MISS:          0 MSHR_MERGE:          0
cpu2->cpu2_L1I PREFETCH     ACCESS:          0 HIT:          0 MISS:          0 MSHR_MERGE:          0
cpu2->cpu2_L1I WRITE        ACCESS:          0 HIT:          0 MISS:          0 MSHR_MERGE:          0
cpu2->cpu2_L1I TRANSLATION  ACCESS:          0 HIT:          0 MISS:          0 MSHR_MERGE:          0
cpu2->cpu2_L1I PREFETCH REQUESTED:          0 ISSUED:          0 USEFUL:          0 USELESS:          0
cpu2->cpu2_L1I AVERAGE MISS LATENCY: 7 cycles
cpu2_L1I COHERENCE INVALIDATIONS:          0
cpu2_L1I COHERENCE WRITE-HIT OTHER-SHARER EVENTS:          0
cpu2_L1D COHERENCE INVALIDATIONS:          0
cpu2_L1D COHERENCE WRITE-HIT OTHER-SHARER EVENTS:          0
cpu2->cpu2_ITLB TOTAL        ACCESS:  253841135 HIT:  253839813 MISS:       1322 MSHR_MERGE:        539
cpu2->cpu2_ITLB LOAD         ACCESS:  253841135 HIT:  253839813 MISS:       1322 MSHR_MERGE:        539
cpu2->cpu2_ITLB RFO          ACCESS:          0 HIT:          0 MISS:          0 MSHR_MERGE:          0
cpu2->cpu2_ITLB PREFETCH     ACCESS:          0 HIT:          0 MISS:          0 MSHR_MERGE:          0
cpu2->cpu2_ITLB WRITE        ACCESS:          0 HIT:          0 MISS:          0 MSHR_MERGE:          0
cpu2->cpu2_ITLB TRANSLATION  ACCESS:          0 HIT:          0 MISS:          0 MSHR_MERGE:          0
cpu2->cpu2_ITLB PREFETCH REQUESTED:          0 ISSUED:          0 USEFUL:          0 USELESS:          0
cpu2->cpu2_ITLB AVERAGE MISS LATENCY: 4 cycles
cpu2_ITLB COHERENCE INVALIDATIONS:          0
cpu2_ITLB COHERENCE WRITE-HIT OTHER-SHARER EVENTS:          0
cpu2_DTLB COHERENCE INVALIDATIONS:          0
cpu2_DTLB COHERENCE WRITE-HIT OTHER-SHARER EVENTS:          0
cpu1->cpu1_STLB TOTAL        ACCESS:    1005871 HIT:     970552 MISS:      35319 MSHR_MERGE:          0
cpu1->cpu1_STLB LOAD         ACCESS:    1005871 HIT:     970552 MISS:      35319 MSHR_MERGE:          0
cpu1->cpu1_STLB RFO          ACCESS:          0 HIT:          0 MISS:          0 MSHR_MERGE:          0
cpu1->cpu1_STLB PREFETCH     ACCESS:          0 HIT:          0 MISS:          0 MSHR_MERGE:          0
cpu1->cpu1_STLB WRITE        ACCESS:          0 HIT:          0 MISS:          0 MSHR_MERGE:          0
cpu1->cpu1_STLB TRANSLATION  ACCESS:          0 HIT:          0 MISS:          0 MSHR_MERGE:          0
cpu1->cpu1_STLB PREFETCH REQUESTED:          0 ISSUED:          0 USEFUL:          0 USELESS:          0
cpu1->cpu1_STLB AVERAGE MISS LATENCY: 493.6 cycles
cpu1_STLB COHERENCE INVALIDATIONS:          0
cpu1_STLB COHERENCE WRITE-HIT OTHER-SHARER EVENTS:          0
cpu1->cpu1_L2C TOTAL        ACCESS:   14587903 HIT:    5828971 MISS:    8758932 MSHR_MERGE:          0
cpu1->cpu1_L2C LOAD         ACCESS:   14533122 HIT:    5828971 MISS:    8704151 MSHR_MERGE:          0
cpu1->cpu1_L2C RFO          ACCESS:          0 HIT:          0 MISS:          0 MSHR_MERGE:          0
cpu1->cpu1_L2C PREFETCH     ACCESS:          0 HIT:          0 MISS:          0 MSHR_MERGE:          0
cpu1->cpu1_L2C WRITE        ACCESS:          0 HIT:          0 MISS:          0 MSHR_MERGE:          0
cpu1->cpu1_L2C TRANSLATION  ACCESS:      54781 HIT:          0 MISS:      54781 MSHR_MERGE:          0
cpu1->cpu1_L2C PREFETCH REQUESTED:          0 ISSUED:          0 USEFUL:          0 USELESS:          0
cpu1->cpu1_L2C AVERAGE MISS LATENCY: 186.5 cycles
cpu1_L2C COHERENCE INVALIDATIONS:          0
cpu1_L2C COHERENCE WRITE-HIT OTHER-SHARER EVENTS:          0
cpu1->cpu1_L1I TOTAL        ACCESS:   53491040 HIT:   36891419 MISS:   16599621 MSHR_MERGE:    2066499
cpu1->cpu1_L1I LOAD         ACCESS:   53491040 HIT:   36891419 MISS:   16599621 MSHR_MERGE:    2066499
cpu1->cpu1_L1I RFO          ACCESS:          0 HIT:          0 MISS:          0 MSHR_MERGE:          0
cpu1->cpu1_L1I PREFETCH     ACCESS:          0 HIT:          0 MISS:          0 MSHR_MERGE:          0
cpu1->cpu1_L1I WRITE        ACCESS:          0 HIT:          0 MISS:          0 MSHR_MERGE:          0
cpu1->cpu1_L1I TRANSLATION  ACCESS:          0 HIT:          0 MISS:          0 MSHR_MERGE:          0
cpu1->cpu1_L1I PREFETCH REQUESTED:          0 ISSUED:          0 USEFUL:          0 USELESS:          0
cpu1->cpu1_L1I AVERAGE MISS LATENCY: 118.9 cycles
cpu1_L1I COHERENCE INVALIDATIONS:          0
cpu1_L1I COHERENCE WRITE-HIT OTHER-SHARER EVENTS:          0
cpu1->cpu1_L1D TOTAL        ACCESS:      70651 HIT:      15870 MISS:      54781 MSHR_MERGE:          0
cpu1->cpu1_L1D LOAD         ACCESS:          0 HIT:          0 MISS:          0 MSHR_MERGE:          0
cpu1->cpu1_L1D RFO          ACCESS:          0 HIT:          0 MISS:          0 MSHR_MERGE:          0
cpu1->cpu1_L1D PREFETCH     ACCESS:          0 HIT:          0 MISS:          0 MSHR_MERGE:          0
cpu1->cpu1_L1D WRITE        ACCESS:          0 HIT:          0 MISS:          0 MSHR_MERGE:          0
cpu1->cpu1_L1D TRANSLATION  ACCESS:      70651 HIT:      15870 MISS:      54781 MSHR_MERGE:          0
cpu1->cpu1_L1D PREFETCH REQUESTED:          0 ISSUED:          0 USEFUL:          0 USELESS:          0
cpu1->cpu1_L1D AVERAGE MISS LATENCY: 310.8 cycles
cpu1_L1D COHERENCE INVALIDATIONS:          0
cpu1_L1D COHERENCE WRITE-HIT OTHER-SHARER EVENTS:          0
cpu1->cpu1_ITLB TOTAL        ACCESS:   52597243 HIT:   51546041 MISS:    1051202 MSHR_MERGE:      45331
cpu1->cpu1_ITLB LOAD         ACCESS:   52597243 HIT:   51546041 MISS:    1051202 MSHR_MERGE:      45331
cpu1->cpu1_ITLB RFO          ACCESS:          0 HIT:          0 MISS:          0 MSHR_MERGE:          0
cpu1->cpu1_ITLB PREFETCH     ACCESS:          0 HIT:          0 MISS:          0 MSHR_MERGE:          0
cpu1->cpu1_ITLB WRITE        ACCESS:          0 HIT:          0 MISS:          0 MSHR_MERGE:          0
cpu1->cpu1_ITLB TRANSLATION  ACCESS:          0 HIT:          0 MISS:          0 MSHR_MERGE:          0
cpu1->cpu1_ITLB PREFETCH REQUESTED:          0 ISSUED:          0 USEFUL:          0 USELESS:          0
cpu1->cpu1_ITLB AVERAGE MISS LATENCY: 21.37 cycles
cpu1_ITLB COHERENCE INVALIDATIONS:          0
cpu1_ITLB COHERENCE WRITE-HIT OTHER-SHARER EVENTS:          0
cpu1_DTLB COHERENCE INVALIDATIONS:          0
cpu1_DTLB COHERENCE WRITE-HIT OTHER-SHARER EVENTS:          0
cpu0->cpu0_STLB TOTAL        ACCESS:    4676640 HIT:    4529117 MISS:     147523 MSHR_MERGE:          0
cpu0->cpu0_STLB LOAD         ACCESS:    4676640 HIT:    4529117 MISS:     147523 MSHR_MERGE:          0
cpu0->cpu0_STLB RFO          ACCESS:          0 HIT:          0 MISS:          0 MSHR_MERGE:          0
cpu0->cpu0_STLB PREFETCH     ACCESS:          0 HIT:          0 MISS:          0 MSHR_MERGE:          0
cpu0->cpu0_STLB WRITE        ACCESS:          0 HIT:          0 MISS:          0 MSHR_MERGE:          0
cpu0->cpu0_STLB TRANSLATION  ACCESS:          0 HIT:          0 MISS:          0 MSHR_MERGE:          0
cpu0->cpu0_STLB PREFETCH REQUESTED:          0 ISSUED:          0 USEFUL:          0 USELESS:          0
cpu0->cpu0_STLB AVERAGE MISS LATENCY: 614.8 cycles
cpu0_STLB COHERENCE INVALIDATIONS:          0
cpu0_STLB COHERENCE WRITE-HIT OTHER-SHARER EVENTS:          0
cpu0->cpu0_L2C TOTAL        ACCESS:   32533006 HIT:   14777359 MISS:   17755647 MSHR_MERGE:          0
cpu0->cpu0_L2C LOAD         ACCESS:   21180296 HIT:    6657568 MISS:   14522728 MSHR_MERGE:          0
cpu0->cpu0_L2C RFO          ACCESS:    3505054 HIT:     505510 MISS:    2999544 MSHR_MERGE:          0
cpu0->cpu0_L2C PREFETCH     ACCESS:          0 HIT:          0 MISS:          0 MSHR_MERGE:          0
cpu0->cpu0_L2C WRITE        ACCESS:    7575610 HIT:    7574678 MISS:        932 MSHR_MERGE:          0
cpu0->cpu0_L2C TRANSLATION  ACCESS:     272046 HIT:      39603 MISS:     232443 MSHR_MERGE:          0
cpu0->cpu0_L2C PREFETCH REQUESTED:          0 ISSUED:          0 USEFUL:          0 USELESS:          0
cpu0->cpu0_L2C AVERAGE MISS LATENCY: 164.2 cycles
cpu0_L2C COHERENCE INVALIDATIONS:          0
cpu0_L2C COHERENCE WRITE-HIT OTHER-SHARER EVENTS:          0
cpu0->cpu0_L1I TOTAL        ACCESS:   31341760 HIT:   31329488 MISS:      12272 MSHR_MERGE:       6045
cpu0->cpu0_L1I LOAD         ACCESS:   31341760 HIT:   31329488 MISS:      12272 MSHR_MERGE:       6045
cpu0->cpu0_L1I RFO          ACCESS:          0 HIT:          0 MISS:          0 MSHR_MERGE:          0
cpu0->cpu0_L1I PREFETCH     ACCESS:          0 HIT:          0 MISS:          0 MSHR_MERGE:          0
cpu0->cpu0_L1I WRITE        ACCESS:          0 HIT:          0 MISS:          0 MSHR_MERGE:          0
cpu0->cpu0_L1I TRANSLATION  ACCESS:          0 HIT:          0 MISS:          0 MSHR_MERGE:          0
cpu0->cpu0_L1I PREFETCH REQUESTED:          0 ISSUED:          0 USEFUL:          0 USELESS:          0
cpu0->cpu0_L1I AVERAGE MISS LATENCY: 276.8 cycles
cpu0_L1I COHERENCE INVALIDATIONS:          0
cpu0_L1I COHERENCE WRITE-HIT OTHER-SHARER EVENTS:          0
cpu0->cpu0_L1D TOTAL        ACCESS:  102762815 HIT:   74400668 MISS:   28362147 MSHR_MERGE:    3409090
cpu0->cpu0_L1D LOAD         ACCESS:   43979587 HIT:   21997191 MISS:   21982396 MSHR_MERGE:     808001
cpu0->cpu0_L1D RFO          ACCESS:          0 HIT:          0 MISS:          0 MSHR_MERGE:          0
cpu0->cpu0_L1D PREFETCH     ACCESS:          0 HIT:          0 MISS:          0 MSHR_MERGE:          0
cpu0->cpu0_L1D WRITE        ACCESS:   58482985 HIT:   52381007 MISS:    6101978 MSHR_MERGE:    2595362
cpu0->cpu0_L1D TRANSLATION  ACCESS:     300243 HIT:      22470 MISS:     277773 MSHR_MERGE:       5727
cpu0->cpu0_L1D PREFETCH REQUESTED:          0 ISSUED:          0 USEFUL:          0 USELESS:          0
cpu0->cpu0_L1D AVERAGE MISS LATENCY: 124.5 cycles
cpu0_L1D COHERENCE INVALIDATIONS:          0
cpu0_L1D COHERENCE WRITE-HIT OTHER-SHARER EVENTS:          0
cpu0->cpu0_ITLB TOTAL        ACCESS:   30149904 HIT:   30148835 MISS:       1069 MSHR_MERGE:        720
cpu0->cpu0_ITLB LOAD         ACCESS:   30149904 HIT:   30148835 MISS:       1069 MSHR_MERGE:        720
cpu0->cpu0_ITLB RFO          ACCESS:          0 HIT:          0 MISS:          0 MSHR_MERGE:          0
cpu0->cpu0_ITLB PREFETCH     ACCESS:          0 HIT:          0 MISS:          0 MSHR_MERGE:          0
cpu0->cpu0_ITLB WRITE        ACCESS:          0 HIT:          0 MISS:          0 MSHR_MERGE:          0
cpu0->cpu0_ITLB TRANSLATION  ACCESS:          0 HIT:          0 MISS:          0 MSHR_MERGE:          0
cpu0->cpu0_ITLB PREFETCH REQUESTED:          0 ISSUED:          0 USEFUL:          0 USELESS:          0
cpu0->cpu0_ITLB AVERAGE MISS LATENCY: 504.6 cycles
cpu0_ITLB COHERENCE INVALIDATIONS:          0
cpu0_ITLB COHERENCE WRITE-HIT OTHER-SHARER EVENTS:          0
cpu0->cpu0_DTLB TOTAL        ACCESS:   99166620 HIT:   94285550 MISS:    4881070 MSHR_MERGE:     204779
cpu0->cpu0_DTLB LOAD         ACCESS:   99166620 HIT:   94285550 MISS:    4881070 MSHR_MERGE:     204779
cpu0->cpu0_DTLB RFO          ACCESS:          0 HIT:          0 MISS:          0 MSHR_MERGE:          0
cpu0->cpu0_DTLB PREFETCH     ACCESS:          0 HIT:          0 MISS:          0 MSHR_MERGE:          0
cpu0->cpu0_DTLB WRITE        ACCESS:          0 HIT:          0 MISS:          0 MSHR_MERGE:          0
cpu0->cpu0_DTLB TRANSLATION  ACCESS:          0 HIT:          0 MISS:          0 MSHR_MERGE:          0
cpu0->cpu0_DTLB PREFETCH REQUESTED:          0 ISSUED:          0 USEFUL:          0 USELESS:          0
cpu0->cpu0_DTLB AVERAGE MISS LATENCY: 23.39 cycles
cpu0_DTLB COHERENCE INVALIDATIONS:          0
cpu0_DTLB COHERENCE WRITE-HIT OTHER-SHARER EVENTS:          0
cpu0->LLC TOTAL        ACCESS:   24202864 HIT:   12341489 MISS:   11861375 MSHR_MERGE:         89
cpu0->LLC LOAD         ACCESS:   14522694 HIT:    7998822 MISS:    6523872 MSHR_MERGE:         65
cpu0->LLC RFO          ACCESS:    2999543 HIT:     961162 MISS:    2038381 MSHR_MERGE:         24
cpu0->LLC PREFETCH     ACCESS:          0 HIT:          0 MISS:          0 MSHR_MERGE:          0
cpu0->LLC WRITE        ACCESS:    6448184 HIT:    3378069 MISS:    3070115 MSHR_MERGE:          0
cpu0->LLC TRANSLATION  ACCESS:     232443 HIT:       3436 MISS:     229007 MSHR_MERGE:          0
cpu0->LLC PREFETCH REQUESTED:          0 ISSUED:          0 USEFUL:          0 USELESS:          0
cpu0->LLC AVERAGE MISS LATENCY: 351.1 cycles
cpu1->LLC TOTAL        ACCESS:    8758932 HIT:    3582909 MISS:    5176023 MSHR_MERGE:         91
cpu1->LLC LOAD         ACCESS:    8704151 HIT:    3582889 MISS:    5121262 MSHR_MERGE:         91
cpu1->LLC RFO          ACCESS:          0 HIT:          0 MISS:          0 MSHR_MERGE:          0
cpu1->LLC PREFETCH     ACCESS:          0 HIT:          0 MISS:          0 MSHR_MERGE:          0
cpu1->LLC WRITE        ACCESS:          0 HIT:          0 MISS:          0 MSHR_MERGE:          0
cpu1->LLC TRANSLATION  ACCESS:      54781 HIT:         20 MISS:      54761 MSHR_MERGE:          0
cpu1->LLC PREFETCH REQUESTED:          0 ISSUED:          0 USEFUL:          0 USELESS:          0
cpu1->LLC AVERAGE MISS LATENCY: 804.5 cycles
LLC COHERENCE INVALIDATIONS:     651982
LLC COHERENCE WRITE-HIT OTHER-SHARER EVENTS:     651982

DRAM Statistics

Channel 0 RQ ROW_BUFFER_HIT:     273717
  ROW_BUFFER_MISS:   13682117
  AVG DBUS CONGESTED CYCLE: 6.425
Channel 0 WQ ROW_BUFFER_HIT:     303995
  ROW_BUFFER_MISS:    2832247
  FULL:          0
Channel 0 REFRESHES ISSUED:      45890

VMEM ALIASED FILLS (cross-CPU shared-page hits): 91747
