[VMEM] WARNING: physical memory size is smaller than virtual memory size.

*** ChampSim Multicore Out-of-Order Simulator ***
Warmup Instructions: 200000000
Simulation Instructions: 50000000
Number of CPUs: 4
Page size: 4096

Off-chip DRAM Size: 16 GiB Channels: 1 Width: 64-bit Data Rate: 3205 MT/s
Heartbeat CPU 1 instructions: 10000001 cycles: 2507979 heartbeat IPC: 3.987 cumulative IPC: 3.987 (Simulation time: 00 hr 03 min 59 sec)
Heartbeat CPU 3 instructions: 10000003 cycles: 2508121 heartbeat IPC: 3.987 cumulative IPC: 3.987 (Simulation time: 00 hr 03 min 59 sec)
Heartbeat CPU 2 instructions: 10000000 cycles: 2508431 heartbeat IPC: 3.987 cumulative IPC: 3.987 (Simulation time: 00 hr 03 min 59 sec)
Heartbeat CPU 1 instructions: 20000001 cycles: 5007979 heartbeat IPC: 4 cumulative IPC: 3.994 (Simulation time: 00 hr 07 min 59 sec)
Heartbeat CPU 3 instructions: 20000003 cycles: 5008121 heartbeat IPC: 4 cumulative IPC: 3.994 (Simulation time: 00 hr 07 min 59 sec)
Heartbeat CPU 2 instructions: 20000001 cycles: 5008542 heartbeat IPC: 4 cumulative IPC: 3.993 (Simulation time: 00 hr 07 min 59 sec)
Heartbeat CPU 1 instructions: 30000001 cycles: 7507979 heartbeat IPC: 4 cumulative IPC: 3.996 (Simulation time: 00 hr 11 min 59 sec)
Heartbeat CPU 3 instructions: 30000003 cycles: 7508121 heartbeat IPC: 4 cumulative IPC: 3.996 (Simulation time: 00 hr 11 min 59 sec)
Heartbeat CPU 2 instructions: 30000001 cycles: 7508542 heartbeat IPC: 4 cumulative IPC: 3.995 (Simulation time: 00 hr 11 min 59 sec)
Heartbeat CPU 0 instructions: 10000003 cycles: 9233338 heartbeat IPC: 1.083 cumulative IPC: 1.083 (Simulation time: 00 hr 14 min 46 sec)
Heartbeat CPU 1 instructions: 40000001 cycles: 10007979 heartbeat IPC: 4 cumulative IPC: 3.997 (Simulation time: 00 hr 16 min 02 sec)
Heartbeat CPU 3 instructions: 40000003 cycles: 10008121 heartbeat IPC: 4 cumulative IPC: 3.997 (Simulation time: 00 hr 16 min 02 sec)
Heartbeat CPU 2 instructions: 40000001 cycles: 10008542 heartbeat IPC: 4 cumulative IPC: 3.997 (Simulation time: 00 hr 16 min 02 sec)
Heartbeat CPU 1 instructions: 50000001 cycles: 12507979 heartbeat IPC: 4 cumulative IPC: 3.997 (Simulation time: 00 hr 19 min 58 sec)
Heartbeat CPU 3 instructions: 50000003 cycles: 12508121 heartbeat IPC: 4 cumulative IPC: 3.997 (Simulation time: 00 hr 19 min 58 sec)
Heartbeat CPU 2 instructions: 50000001 cycles: 12508542 heartbeat IPC: 4 cumulative IPC: 3.997 (Simulation time: 00 hr 19 min 58 sec)
Heartbeat CPU 1 instructions: 60000001 cycles: 15007979 heartbeat IPC: 4 cumulative IPC: 3.998 (Simulation time: 00 hr 24 min 02 sec)
Heartbeat CPU 3 instructions: 60000003 cycles: 15008121 heartbeat IPC: 4 cumulative IPC: 3.998 (Simulation time: 00 hr 24 min 02 sec)
Heartbeat CPU 2 instructions: 60000001 cycles: 15008542 heartbeat IPC: 4 cumulative IPC: 3.998 (Simulation time: 00 hr 24 min 02 sec)
Heartbeat CPU 1 instructions: 70000001 cycles: 17507979 heartbeat IPC: 4 cumulative IPC: 3.998 (Simulation time: 00 hr 28 min 17 sec)
Heartbeat CPU 3 instructions: 70000003 cycles: 17508121 heartbeat IPC: 4 cumulative IPC: 3.998 (Simulation time: 00 hr 28 min 17 sec)
Heartbeat CPU 2 instructions: 70000001 cycles: 17508542 heartbeat IPC: 4 cumulative IPC: 3.998 (Simulation time: 00 hr 28 min 17 sec)
Heartbeat CPU 0 instructions: 20000004 cycles: 17565151 heartbeat IPC: 1.2 cumulative IPC: 1.139 (Simulation time: 00 hr 28 min 21 sec)
Heartbeat CPU 1 instructions: 80000001 cycles: 20007979 heartbeat IPC: 4 cumulative IPC: 3.998 (Simulation time: 00 hr 32 min 25 sec)
Heartbeat CPU 3 instructions: 80000003 cycles: 20008121 heartbeat IPC: 4 cumulative IPC: 3.998 (Simulation time: 00 hr 32 min 25 sec)
Heartbeat CPU 2 instructions: 80000001 cycles: 20008542 heartbeat IPC: 4 cumulative IPC: 3.998 (Simulation time: 00 hr 32 min 25 sec)
Heartbeat CPU 1 instructions: 90000001 cycles: 22507979 heartbeat IPC: 4 cumulative IPC: 3.999 (Simulation time: 00 hr 36 min 43 sec)
Heartbeat CPU 3 instructions: 90000003 cycles: 22508121 heartbeat IPC: 4 cumulative IPC: 3.999 (Simulation time: 00 hr 36 min 43 sec)
Heartbeat CPU 2 instructions: 90000001 cycles: 22508542 heartbeat IPC: 4 cumulative IPC: 3.998 (Simulation time: 00 hr 36 min 43 sec)
Heartbeat CPU 1 instructions: 100000001 cycles: 25007979 heartbeat IPC: 4 cumulative IPC: 3.999 (Simulation time: 00 hr 40 min 56 sec)
Heartbeat CPU 3 instructions: 100000003 cycles: 25008121 heartbeat IPC: 4 cumulative IPC: 3.999 (Simulation time: 00 hr 40 min 56 sec)
Heartbeat CPU 2 instructions: 100000001 cycles: 25008542 heartbeat IPC: 4 cumulative IPC: 3.999 (Simulation time: 00 hr 40 min 56 sec)
Heartbeat CPU 0 instructions: 30000004 cycles: 25886240 heartbeat IPC: 1.202 cumulative IPC: 1.159 (Simulation time: 00 hr 42 min 22 sec)
Heartbeat CPU 1 instructions: 110000001 cycles: 27507979 heartbeat IPC: 4 cumulative IPC: 3.999 (Simulation time: 00 hr 45 min 06 sec)
Heartbeat CPU 3 instructions: 110000003 cycles: 27508121 heartbeat IPC: 4 cumulative IPC: 3.999 (Simulation time: 00 hr 45 min 06 sec)
Heartbeat CPU 2 instructions: 110000001 cycles: 27508542 heartbeat IPC: 4 cumulative IPC: 3.999 (Simulation time: 00 hr 45 min 06 sec)
Heartbeat CPU 1 instructions: 120000001 cycles: 30007979 heartbeat IPC: 4 cumulative IPC: 3.999 (Simulation time: 00 hr 49 min 16 sec)
Heartbeat CPU 3 instructions: 120000003 cycles: 30008121 heartbeat IPC: 4 cumulative IPC: 3.999 (Simulation time: 00 hr 49 min 16 sec)
Heartbeat CPU 2 instructions: 120000001 cycles: 30008542 heartbeat IPC: 4 cumulative IPC: 3.999 (Simulation time: 00 hr 49 min 16 sec)
Heartbeat CPU 1 instructions: 130000001 cycles: 32507979 heartbeat IPC: 4 cumulative IPC: 3.999 (Simulation time: 00 hr 53 min 23 sec)
Heartbeat CPU 3 instructions: 130000003 cycles: 32508121 heartbeat IPC: 4 cumulative IPC: 3.999 (Simulation time: 00 hr 53 min 23 sec)
Heartbeat CPU 2 instructions: 130000001 cycles: 32508542 heartbeat IPC: 4 cumulative IPC: 3.999 (Simulation time: 00 hr 53 min 23 sec)
Heartbeat CPU 0 instructions: 40000004 cycles: 34388412 heartbeat IPC: 1.176 cumulative IPC: 1.163 (Simulation time: 00 hr 56 min 28 sec)
Heartbeat CPU 1 instructions: 140000001 cycles: 35007979 heartbeat IPC: 4 cumulative IPC: 3.999 (Simulation time: 00 hr 57 min 34 sec)
Heartbeat CPU 3 instructions: 140000003 cycles: 35008121 heartbeat IPC: 4 cumulative IPC: 3.999 (Simulation time: 00 hr 57 min 34 sec)
Heartbeat CPU 2 instructions: 140000001 cycles: 35008542 heartbeat IPC: 4 cumulative IPC: 3.999 (Simulation time: 00 hr 57 min 34 sec)
Heartbeat CPU 1 instructions: 150000001 cycles: 37507979 heartbeat IPC: 4 cumulative IPC: 3.999 (Simulation time: 01 hr 01 min 49 sec)
Heartbeat CPU 3 instructions: 150000003 cycles: 37508121 heartbeat IPC: 4 cumulative IPC: 3.999 (Simulation time: 01 hr 01 min 49 sec)
Heartbeat CPU 2 instructions: 150000001 cycles: 37508542 heartbeat IPC: 4 cumulative IPC: 3.999 (Simulation time: 01 hr 01 min 49 sec)
Heartbeat CPU 1 instructions: 160000001 cycles: 40007979 heartbeat IPC: 4 cumulative IPC: 3.999 (Simulation time: 01 hr 05 min 59 sec)
Heartbeat CPU 3 instructions: 160000003 cycles: 40008121 heartbeat IPC: 4 cumulative IPC: 3.999 (Simulation time: 01 hr 05 min 59 sec)
Heartbeat CPU 2 instructions: 160000001 cycles: 40008542 heartbeat IPC: 4 cumulative IPC: 3.999 (Simulation time: 01 hr 05 min 59 sec)
Heartbeat CPU 1 instructions: 170000001 cycles: 42507979 heartbeat IPC: 4 cumulative IPC: 3.999 (Simulation time: 01 hr 10 min 03 sec)
Heartbeat CPU 3 instructions: 170000003 cycles: 42508121 heartbeat IPC: 4 cumulative IPC: 3.999 (Simulation time: 01 hr 10 min 03 sec)
Heartbeat CPU 2 instructions: 170000001 cycles: 42508542 heartbeat IPC: 4 cumulative IPC: 3.999 (Simulation time: 01 hr 10 min 03 sec)
Heartbeat CPU 0 instructions: 50000006 cycles: 42802627 heartbeat IPC: 1.188 cumulative IPC: 1.168 (Simulation time: 01 hr 10 min 31 sec)
Heartbeat CPU 1 instructions: 180000001 cycles: 45007979 heartbeat IPC: 4 cumulative IPC: 3.999 (Simulation time: 01 hr 14 min 04 sec)
Heartbeat CPU 3 instructions: 180000003 cycles: 45008121 heartbeat IPC: 4 cumulative IPC: 3.999 (Simulation time: 01 hr 14 min 04 sec)
Heartbeat CPU 2 instructions: 180000001 cycles: 45008542 heartbeat IPC: 4 cumulative IPC: 3.999 (Simulation time: 01 hr 14 min 04 sec)
Heartbeat CPU 1 instructions: 190000001 cycles: 47507979 heartbeat IPC: 4 cumulative IPC: 3.999 (Simulation time: 01 hr 18 min 07 sec)
Heartbeat CPU 3 instructions: 190000003 cycles: 47508121 heartbeat IPC: 4 cumulative IPC: 3.999 (Simulation time: 01 hr 18 min 07 sec)
Heartbeat CPU 2 instructions: 190000001 cycles: 47508542 heartbeat IPC: 4 cumulative IPC: 3.999 (Simulation time: 01 hr 18 min 07 sec)
Heartbeat CPU 1 instructions: 200000001 cycles: 50007979 heartbeat IPC: 4 cumulative IPC: 3.999 (Simulation time: 01 hr 22 min 01 sec)
Warmup finished CPU 1 instructions: 200000001 cycles: 50007979 cumulative IPC: 3.999 (Simulation time: 01 hr 22 min 01 sec)
Heartbeat CPU 3 instructions: 200000003 cycles: 50008121 heartbeat IPC: 4 cumulative IPC: 3.999 (Simulation time: 01 hr 22 min 01 sec)
Warmup finished CPU 3 instructions: 200000003 cycles: 50008121 cumulative IPC: 3.999 (Simulation time: 01 hr 22 min 01 sec)
Heartbeat CPU 2 instructions: 200000001 cycles: 50008542 heartbeat IPC: 4 cumulative IPC: 3.999 (Simulation time: 01 hr 22 min 01 sec)
Warmup finished CPU 2 instructions: 200000001 cycles: 50008542 cumulative IPC: 3.999 (Simulation time: 01 hr 22 min 01 sec)
Heartbeat CPU 0 instructions: 60000006 cycles: 51586889 heartbeat IPC: 1.138 cumulative IPC: 1.163 (Simulation time: 01 hr 24 min 37 sec)
Heartbeat CPU 1 instructions: 210000001 cycles: 52507979 heartbeat IPC: 4 cumulative IPC: 3.999 (Simulation time: 01 hr 26 min 04 sec)
Heartbeat CPU 3 instructions: 210000003 cycles: 52508121 heartbeat IPC: 4 cumulative IPC: 3.999 (Simulation time: 01 hr 26 min 04 sec)
Heartbeat CPU 2 instructions: 210000001 cycles: 52508542 heartbeat IPC: 4 cumulative IPC: 3.999 (Simulation time: 01 hr 26 min 04 sec)
Heartbeat CPU 1 instructions: 220000001 cycles: 55007979 heartbeat IPC: 4 cumulative IPC: 3.999 (Simulation time: 01 hr 30 min 05 sec)
Heartbeat CPU 3 instructions: 220000003 cycles: 55008121 heartbeat IPC: 4 cumulative IPC: 3.999 (Simulation time: 01 hr 30 min 05 sec)
Heartbeat CPU 2 instructions: 220000001 cycles: 55008542 heartbeat IPC: 4 cumulative IPC: 3.999 (Simulation time: 01 hr 30 min 06 sec)
Heartbeat CPU 1 instructions: 230000001 cycles: 57507979 heartbeat IPC: 4 cumulative IPC: 3.999 (Simulation time: 01 hr 34 min 01 sec)
Heartbeat CPU 3 instructions: 230000003 cycles: 57508121 heartbeat IPC: 4 cumulative IPC: 3.999 (Simulation time: 01 hr 34 min 01 sec)
Heartbeat CPU 2 instructions: 230000001 cycles: 57508542 heartbeat IPC: 4 cumulative IPC: 3.999 (Simulation time: 01 hr 34 min 01 sec)
Heartbeat CPU 0 instructions: 70000006 cycles: 59705232 heartbeat IPC: 1.232 cumulative IPC: 1.172 (Simulation time: 01 hr 37 min 26 sec)
Heartbeat CPU 1 instructions: 240000001 cycles: 60007979 heartbeat IPC: 4 cumulative IPC: 3.999 (Simulation time: 01 hr 37 min 55 sec)
Heartbeat CPU 3 instructions: 240000003 cycles: 60008121 heartbeat IPC: 4 cumulative IPC: 3.999 (Simulation time: 01 hr 37 min 55 sec)
Heartbeat CPU 2 instructions: 240000001 cycles: 60008542 heartbeat IPC: 4 cumulative IPC: 3.999 (Simulation time: 01 hr 37 min 55 sec)
Heartbeat CPU 1 instructions: 250000001 cycles: 62507979 heartbeat IPC: 4 cumulative IPC: 3.999 (Simulation time: 01 hr 41 min 54 sec)
Heartbeat CPU 3 instructions: 250000003 cycles: 62508121 heartbeat IPC: 4 cumulative IPC: 3.999 (Simulation time: 01 hr 41 min 54 sec)
Heartbeat CPU 2 instructions: 250000001 cycles: 62508542 heartbeat IPC: 4 cumulative IPC: 3.999 (Simulation time: 01 hr 41 min 54 sec)
Heartbeat CPU 1 instructions: 260000001 cycles: 65007979 heartbeat IPC: 4 cumulative IPC: 4 (Simulation time: 01 hr 46 min 01 sec)
Heartbeat CPU 3 instructions: 260000003 cycles: 65008121 heartbeat IPC: 4 cumulative IPC: 4 (Simulation time: 01 hr 46 min 01 sec)
Heartbeat CPU 2 instructions: 260000001 cycles: 65008542 heartbeat IPC: 4 cumulative IPC: 3.999 (Simulation time: 01 hr 46 min 01 sec)
Heartbeat CPU 1 instructions: 270000001 cycles: 67507979 heartbeat IPC: 4 cumulative IPC: 4 (Simulation time: 01 hr 50 min 08 sec)
Heartbeat CPU 3 instructions: 270000003 cycles: 67508121 heartbeat IPC: 4 cumulative IPC: 4 (Simulation time: 01 hr 50 min 08 sec)
Heartbeat CPU 2 instructions: 270000001 cycles: 67508542 heartbeat IPC: 4 cumulative IPC: 3.999 (Simulation time: 01 hr 50 min 08 sec)
Heartbeat CPU 0 instructions: 80000008 cycles: 67585958 heartbeat IPC: 1.269 cumulative IPC: 1.184 (Simulation time: 01 hr 50 min 17 sec)
Heartbeat CPU 1 instructions: 280000001 cycles: 70007979 heartbeat IPC: 4 cumulative IPC: 4 (Simulation time: 01 hr 54 min 07 sec)
Heartbeat CPU 3 instructions: 280000003 cycles: 70008121 heartbeat IPC: 4 cumulative IPC: 4 (Simulation time: 01 hr 54 min 07 sec)
Heartbeat CPU 2 instructions: 280000001 cycles: 70008542 heartbeat IPC: 4 cumulative IPC: 4 (Simulation time: 01 hr 54 min 07 sec)
Heartbeat CPU 1 instructions: 290000001 cycles: 72507979 heartbeat IPC: 4 cumulative IPC: 4 (Simulation time: 01 hr 58 min 15 sec)
Heartbeat CPU 3 instructions: 290000003 cycles: 72508121 heartbeat IPC: 4 cumulative IPC: 4 (Simulation time: 01 hr 58 min 15 sec)
Heartbeat CPU 2 instructions: 290000001 cycles: 72508542 heartbeat IPC: 4 cumulative IPC: 4 (Simulation time: 01 hr 58 min 15 sec)
Heartbeat CPU 1 instructions: 300000001 cycles: 75007979 heartbeat IPC: 4 cumulative IPC: 4 (Simulation time: 02 hr 02 min 18 sec)
Heartbeat CPU 3 instructions: 300000003 cycles: 75008121 heartbeat IPC: 4 cumulative IPC: 4 (Simulation time: 02 hr 02 min 18 sec)
Heartbeat CPU 2 instructions: 300000001 cycles: 75008542 heartbeat IPC: 4 cumulative IPC: 4 (Simulation time: 02 hr 02 min 18 sec)
Heartbeat CPU 0 instructions: 90000011 cycles: 75893151 heartbeat IPC: 1.204 cumulative IPC: 1.186 (Simulation time: 02 hr 03 min 43 sec)
Heartbeat CPU 1 instructions: 310000001 cycles: 77507979 heartbeat IPC: 4 cumulative IPC: 4 (Simulation time: 02 hr 06 min 17 sec)
Heartbeat CPU 3 instructions: 310000003 cycles: 77508121 heartbeat IPC: 4 cumulative IPC: 4 (Simulation time: 02 hr 06 min 17 sec)
Heartbeat CPU 2 instructions: 310000001 cycles: 77508542 heartbeat IPC: 4 cumulative IPC: 4 (Simulation time: 02 hr 06 min 17 sec)
Heartbeat CPU 1 instructions: 320000001 cycles: 80007979 heartbeat IPC: 4 cumulative IPC: 4 (Simulation time: 02 hr 10 min 21 sec)
Heartbeat CPU 3 instructions: 320000003 cycles: 80008121 heartbeat IPC: 4 cumulative IPC: 4 (Simulation time: 02 hr 10 min 21 sec)
Heartbeat CPU 2 instructions: 320000001 cycles: 80008542 heartbeat IPC: 4 cumulative IPC: 4 (Simulation time: 02 hr 10 min 21 sec)
*** Reached end of trace: (2, "traces/fluidanimate_8t/fluid3.champsimtrace")
Heartbeat CPU 1 instructions: 330000001 cycles: 82507979 heartbeat IPC: 4 cumulative IPC: 4 (Simulation time: 02 hr 14 min 18 sec)
Heartbeat CPU 3 instructions: 330000003 cycles: 82508121 heartbeat IPC: 4 cumulative IPC: 4 (Simulation time: 02 hr 14 min 18 sec)
Heartbeat CPU 2 instructions: 330000002 cycles: 82512548 heartbeat IPC: 3.994 cumulative IPC: 3.999 (Simulation time: 02 hr 14 min 18 sec)
*** Reached end of trace: (1, "traces/fluidanimate_8t/fluid2.champsimtrace")
Heartbeat CPU 0 instructions: 100000012 cycles: 84041376 heartbeat IPC: 1.227 cumulative IPC: 1.19 (Simulation time: 02 hr 16 min 50 sec)
*** Reached end of trace: (3, "traces/fluidanimate_8t/fluid4.champsimtrace")
Heartbeat CPU 1 instructions: 340000001 cycles: 85009968 heartbeat IPC: 3.997 cumulative IPC: 4 (Simulation time: 02 hr 18 min 21 sec)
Heartbeat CPU 3 instructions: 340000003 cycles: 85010126 heartbeat IPC: 3.997 cumulative IPC: 4 (Simulation time: 02 hr 18 min 21 sec)
Heartbeat CPU 2 instructions: 340000002 cycles: 85012548 heartbeat IPC: 4 cumulative IPC: 3.999 (Simulation time: 02 hr 18 min 21 sec)
Heartbeat CPU 1 instructions: 350000001 cycles: 87509968 heartbeat IPC: 4 cumulative IPC: 4 (Simulation time: 02 hr 22 min 33 sec)
Heartbeat CPU 3 instructions: 350000003 cycles: 87510126 heartbeat IPC: 4 cumulative IPC: 4 (Simulation time: 02 hr 22 min 33 sec)
Heartbeat CPU 2 instructions: 350000002 cycles: 87512548 heartbeat IPC: 4 cumulative IPC: 3.999 (Simulation time: 02 hr 22 min 33 sec)
Heartbeat CPU 1 instructions: 360000001 cycles: 90009968 heartbeat IPC: 4 cumulative IPC: 4 (Simulation time: 02 hr 26 min 35 sec)
Heartbeat CPU 3 instructions: 360000003 cycles: 90010126 heartbeat IPC: 4 cumulative IPC: 4 (Simulation time: 02 hr 26 min 35 sec)
Heartbeat CPU 2 instructions: 360000002 cycles: 90012548 heartbeat IPC: 4 cumulative IPC: 3.999 (Simulation time: 02 hr 26 min 36 sec)
Heartbeat CPU 0 instructions: 110000014 cycles: 90811485 heartbeat IPC: 1.477 cumulative IPC: 1.211 (Simulation time: 02 hr 27 min 50 sec)
Heartbeat CPU 1 instructions: 370000001 cycles: 92509968 heartbeat IPC: 4 cumulative IPC: 4 (Simulation time: 02 hr 30 min 28 sec)
Heartbeat CPU 3 instructions: 370000003 cycles: 92510126 heartbeat IPC: 4 cumulative IPC: 4 (Simulation time: 02 hr 30 min 28 sec)
Heartbeat CPU 2 instructions: 370000002 cycles: 92512548 heartbeat IPC: 4 cumulative IPC: 3.999 (Simulation time: 02 hr 30 min 28 sec)
Heartbeat CPU 1 instructions: 380000001 cycles: 95009968 heartbeat IPC: 4 cumulative IPC: 4 (Simulation time: 02 hr 34 min 38 sec)
Heartbeat CPU 3 instructions: 380000003 cycles: 95010126 heartbeat IPC: 4 cumulative IPC: 4 (Simulation time: 02 hr 34 min 38 sec)
Heartbeat CPU 2 instructions: 380000002 cycles: 95012548 heartbeat IPC: 4 cumulative IPC: 3.999 (Simulation time: 02 hr 34 min 38 sec)
Heartbeat CPU 0 instructions: 120000016 cycles: 95223387 heartbeat IPC: 2.267 cumulative IPC: 1.26 (Simulation time: 02 hr 35 min 01 sec)
Heartbeat CPU 1 instructions: 390000001 cycles: 97509968 heartbeat IPC: 4 cumulative IPC: 4 (Simulation time: 02 hr 38 min 37 sec)
Heartbeat CPU 3 instructions: 390000003 cycles: 97510126 heartbeat IPC: 4 cumulative IPC: 4 (Simulation time: 02 hr 38 min 38 sec)
Heartbeat CPU 2 instructions: 390000002 cycles: 97512548 heartbeat IPC: 4 cumulative IPC: 3.999 (Simulation time: 02 hr 38 min 38 sec)
Heartbeat CPU 1 instructions: 400000001 cycles: 100009968 heartbeat IPC: 4 cumulative IPC: 4 (Simulation time: 02 hr 42 min 41 sec)
Heartbeat CPU 3 instructions: 400000003 cycles: 100010126 heartbeat IPC: 4 cumulative IPC: 4 (Simulation time: 02 hr 42 min 41 sec)
Heartbeat CPU 2 instructions: 400000002 cycles: 100012548 heartbeat IPC: 4 cumulative IPC: 3.999 (Simulation time: 02 hr 42 min 41 sec)
Heartbeat CPU 0 instructions: 130000018 cycles: 101589562 heartbeat IPC: 1.571 cumulative IPC: 1.28 (Simulation time: 02 hr 45 min 22 sec)
Heartbeat CPU 1 instructions: 410000001 cycles: 102509968 heartbeat IPC: 4 cumulative IPC: 4 (Simulation time: 02 hr 46 min 58 sec)
Heartbeat CPU 3 instructions: 410000003 cycles: 102510126 heartbeat IPC: 4 cumulative IPC: 4 (Simulation time: 02 hr 46 min 58 sec)
Heartbeat CPU 2 instructions: 410000002 cycles: 102512548 heartbeat IPC: 4 cumulative IPC: 4 (Simulation time: 02 hr 46 min 58 sec)
Heartbeat CPU 1 instructions: 420000001 cycles: 105009968 heartbeat IPC: 4 cumulative IPC: 4 (Simulation time: 02 hr 51 min 08 sec)
Heartbeat CPU 3 instructions: 420000003 cycles: 105010126 heartbeat IPC: 4 cumulative IPC: 4 (Simulation time: 02 hr 51 min 08 sec)
Heartbeat CPU 2 instructions: 420000002 cycles: 105012548 heartbeat IPC: 4 cumulative IPC: 4 (Simulation time: 02 hr 51 min 08 sec)
Heartbeat CPU 1 instructions: 430000001 cycles: 107509968 heartbeat IPC: 4 cumulative IPC: 4 (Simulation time: 02 hr 55 min 03 sec)
Heartbeat CPU 3 instructions: 430000003 cycles: 107510126 heartbeat IPC: 4 cumulative IPC: 4 (Simulation time: 02 hr 55 min 03 sec)
Heartbeat CPU 2 instructions: 430000002 cycles: 107512548 heartbeat IPC: 4 cumulative IPC: 4 (Simulation time: 02 hr 55 min 03 sec)
Heartbeat CPU 0 instructions: 140000018 cycles: 109911578 heartbeat IPC: 1.202 cumulative IPC: 1.274 (Simulation time: 02 hr 59 min 01 sec)
Heartbeat CPU 1 instructions: 440000001 cycles: 110009968 heartbeat IPC: 4 cumulative IPC: 4 (Simulation time: 02 hr 59 min 11 sec)
Heartbeat CPU 3 instructions: 440000003 cycles: 110010126 heartbeat IPC: 4 cumulative IPC: 4 (Simulation time: 02 hr 59 min 11 sec)
Heartbeat CPU 2 instructions: 440000002 cycles: 110012548 heartbeat IPC: 4 cumulative IPC: 4 (Simulation time: 02 hr 59 min 11 sec)
Heartbeat CPU 1 instructions: 450000001 cycles: 112509968 heartbeat IPC: 4 cumulative IPC: 4 (Simulation time: 03 hr 03 min 08 sec)
Heartbeat CPU 3 instructions: 450000003 cycles: 112510126 heartbeat IPC: 4 cumulative IPC: 4 (Simulation time: 03 hr 03 min 08 sec)
Heartbeat CPU 2 instructions: 450000002 cycles: 112512548 heartbeat IPC: 4 cumulative IPC: 4 (Simulation time: 03 hr 03 min 09 sec)
Heartbeat CPU 1 instructions: 460000001 cycles: 115009968 heartbeat IPC: 4 cumulative IPC: 4 (Simulation time: 03 hr 07 min 16 sec)
Heartbeat CPU 3 instructions: 460000003 cycles: 115010126 heartbeat IPC: 4 cumulative IPC: 4 (Simulation time: 03 hr 07 min 16 sec)
Heartbeat CPU 2 instructions: 460000002 cycles: 115012548 heartbeat IPC: 4 cumulative IPC: 4 (Simulation time: 03 hr 07 min 17 sec)
Heartbeat CPU 0 instructions: 150000018 cycles: 116432633 heartbeat IPC: 1.533 cumulative IPC: 1.288 (Simulation time: 03 hr 09 min 36 sec)
Heartbeat CPU 1 instructions: 470000001 cycles: 117509968 heartbeat IPC: 4 cumulative IPC: 4 (Simulation time: 03 hr 11 min 24 sec)
Heartbeat CPU 3 instructions: 470000003 cycles: 117510126 heartbeat IPC: 4 cumulative IPC: 4 (Simulation time: 03 hr 11 min 24 sec)
Heartbeat CPU 2 instructions: 470000002 cycles: 117512548 heartbeat IPC: 4 cumulative IPC: 4 (Simulation time: 03 hr 11 min 24 sec)
Heartbeat CPU 1 instructions: 480000001 cycles: 120009968 heartbeat IPC: 4 cumulative IPC: 4 (Simulation time: 03 hr 15 min 27 sec)
Heartbeat CPU 3 instructions: 480000003 cycles: 120010126 heartbeat IPC: 4 cumulative IPC: 4 (Simulation time: 03 hr 15 min 27 sec)
Heartbeat CPU 2 instructions: 480000002 cycles: 120012548 heartbeat IPC: 4 cumulative IPC: 4 (Simulation time: 03 hr 15 min 27 sec)
Heartbeat CPU 0 instructions: 160000021 cycles: 120651596 heartbeat IPC: 2.37 cumulative IPC: 1.326 (Simulation time: 03 hr 16 min 29 sec)
Heartbeat CPU 1 instructions: 490000001 cycles: 122509968 heartbeat IPC: 4 cumulative IPC: 4 (Simulation time: 03 hr 19 min 29 sec)
Heartbeat CPU 3 instructions: 490000003 cycles: 122510126 heartbeat IPC: 4 cumulative IPC: 4 (Simulation time: 03 hr 19 min 29 sec)
Heartbeat CPU 2 instructions: 490000002 cycles: 122512548 heartbeat IPC: 4 cumulative IPC: 4 (Simulation time: 03 hr 19 min 29 sec)
Heartbeat CPU 1 instructions: 500000001 cycles: 125009968 heartbeat IPC: 4 cumulative IPC: 4 (Simulation time: 03 hr 23 min 23 sec)
Heartbeat CPU 3 instructions: 500000003 cycles: 125010126 heartbeat IPC: 4 cumulative IPC: 4 (Simulation time: 03 hr 23 min 23 sec)
Heartbeat CPU 2 instructions: 500000002 cycles: 125012548 heartbeat IPC: 4 cumulative IPC: 4 (Simulation time: 03 hr 23 min 23 sec)
Heartbeat CPU 0 instructions: 170000022 cycles: 126417298 heartbeat IPC: 1.734 cumulative IPC: 1.345 (Simulation time: 03 hr 25 min 31 sec)
Heartbeat CPU 1 instructions: 510000001 cycles: 127509968 heartbeat IPC: 4 cumulative IPC: 4 (Simulation time: 03 hr 27 min 10 sec)
Heartbeat CPU 3 instructions: 510000003 cycles: 127510126 heartbeat IPC: 4 cumulative IPC: 4 (Simulation time: 03 hr 27 min 10 sec)
Heartbeat CPU 2 instructions: 510000002 cycles: 127512548 heartbeat IPC: 4 cumulative IPC: 4 (Simulation time: 03 hr 27 min 10 sec)
Heartbeat CPU 1 instructions: 520000001 cycles: 130009968 heartbeat IPC: 4 cumulative IPC: 4 (Simulation time: 03 hr 31 min 10 sec)
Heartbeat CPU 3 instructions: 520000003 cycles: 130010126 heartbeat IPC: 4 cumulative IPC: 4 (Simulation time: 03 hr 31 min 10 sec)
Heartbeat CPU 2 instructions: 520000002 cycles: 130012548 heartbeat IPC: 4 cumulative IPC: 4 (Simulation time: 03 hr 31 min 10 sec)
Heartbeat CPU 1 instructions: 530000001 cycles: 132509968 heartbeat IPC: 4 cumulative IPC: 4 (Simulation time: 03 hr 35 min 14 sec)
Heartbeat CPU 3 instructions: 530000003 cycles: 132510126 heartbeat IPC: 4 cumulative IPC: 4 (Simulation time: 03 hr 35 min 14 sec)
Heartbeat CPU 2 instructions: 530000002 cycles: 132512548 heartbeat IPC: 4 cumulative IPC: 4 (Simulation time: 03 hr 35 min 15 sec)
Heartbeat CPU 0 instructions: 180000025 cycles: 132797246 heartbeat IPC: 1.567 cumulative IPC: 1.355 (Simulation time: 03 hr 35 min 41 sec)
Heartbeat CPU 1 instructions: 540000001 cycles: 135009968 heartbeat IPC: 4 cumulative IPC: 4 (Simulation time: 03 hr 39 min 17 sec)
Heartbeat CPU 3 instructions: 540000003 cycles: 135010126 heartbeat IPC: 4 cumulative IPC: 4 (Simulation time: 03 hr 39 min 17 sec)
Heartbeat CPU 2 instructions: 540000002 cycles: 135012548 heartbeat IPC: 4 cumulative IPC: 4 (Simulation time: 03 hr 39 min 17 sec)
Heartbeat CPU 1 instructions: 550000001 cycles: 137509968 heartbeat IPC: 4 cumulative IPC: 4 (Simulation time: 03 hr 43 min 14 sec)
Heartbeat CPU 3 instructions: 550000003 cycles: 137510126 heartbeat IPC: 4 cumulative IPC: 4 (Simulation time: 03 hr 43 min 14 sec)
Heartbeat CPU 2 instructions: 550000002 cycles: 137512548 heartbeat IPC: 4 cumulative IPC: 4 (Simulation time: 03 hr 43 min 14 sec)
Heartbeat CPU 0 instructions: 190000025 cycles: 140003131 heartbeat IPC: 1.388 cumulative IPC: 1.357 (Simulation time: 03 hr 47 min 14 sec)
Heartbeat CPU 1 instructions: 560000001 cycles: 140009968 heartbeat IPC: 4 cumulative IPC: 4 (Simulation time: 03 hr 47 min 14 sec)
Heartbeat CPU 3 instructions: 560000003 cycles: 140010126 heartbeat IPC: 4 cumulative IPC: 4 (Simulation time: 03 hr 47 min 14 sec)
Heartbeat CPU 2 instructions: 560000002 cycles: 140012548 heartbeat IPC: 4 cumulative IPC: 4 (Simulation time: 03 hr 47 min 15 sec)
Heartbeat CPU 1 instructions: 570000001 cycles: 142509968 heartbeat IPC: 4 cumulative IPC: 4 (Simulation time: 03 hr 51 min 22 sec)
Heartbeat CPU 3 instructions: 570000003 cycles: 142510126 heartbeat IPC: 4 cumulative IPC: 4 (Simulation time: 03 hr 51 min 22 sec)
Heartbeat CPU 2 instructions: 570000002 cycles: 142512548 heartbeat IPC: 4 cumulative IPC: 4 (Simulation time: 03 hr 51 min 22 sec)
Warmup finished CPU 0 instructions: 200000000 cycles: 144607886 cumulative IPC: 1.383 (Simulation time: 03 hr 54 min 43 sec)
Warmup complete CPU 3 instructions: 578391043 cycles: 144607886 cumulative IPC: 4 (Simulation time: 03 hr 54 min 43 sec)
Warmup complete CPU 2 instructions: 578381354 cycles: 144607886 cumulative IPC: 4 (Simulation time: 03 hr 54 min 43 sec)
Warmup complete CPU 1 instructions: 578391673 cycles: 144607886 cumulative IPC: 4 (Simulation time: 03 hr 54 min 43 sec)
Warmup complete CPU 0 instructions: 200000000 cycles: 144607886 cumulative IPC: 1.383 (Simulation time: 03 hr 54 min 43 sec)
Heartbeat CPU 0 instructions: 200000028 cycles: 144607931 heartbeat IPC: 2.172 cumulative IPC: 0.6222 (Simulation time: 03 hr 54 min 43 sec)
Heartbeat CPU 1 instructions: 580000001 cycles: 145009968 heartbeat IPC: 4 cumulative IPC: 4 (Simulation time: 03 hr 55 min 22 sec)
Heartbeat CPU 3 instructions: 580000003 cycles: 145010126 heartbeat IPC: 4 cumulative IPC: 4 (Simulation time: 03 hr 55 min 22 sec)
Heartbeat CPU 2 instructions: 580000002 cycles: 145012548 heartbeat IPC: 4 cumulative IPC: 4 (Simulation time: 03 hr 55 min 23 sec)
Heartbeat CPU 1 instructions: 590000001 cycles: 147509968 heartbeat IPC: 4 cumulative IPC: 4 (Simulation time: 03 hr 59 min 20 sec)
Heartbeat CPU 3 instructions: 590000003 cycles: 147510126 heartbeat IPC: 4 cumulative IPC: 4 (Simulation time: 03 hr 59 min 20 sec)
Heartbeat CPU 2 instructions: 590000002 cycles: 147512548 heartbeat IPC: 4 cumulative IPC: 4 (Simulation time: 03 hr 59 min 20 sec)
Heartbeat CPU 1 instructions: 600000001 cycles: 150009968 heartbeat IPC: 4 cumulative IPC: 4 (Simulation time: 04 hr 03 min 16 sec)
Heartbeat CPU 3 instructions: 600000003 cycles: 150010126 heartbeat IPC: 4 cumulative IPC: 4 (Simulation time: 04 hr 03 min 16 sec)
Heartbeat CPU 2 instructions: 600000002 cycles: 150012548 heartbeat IPC: 4 cumulative IPC: 4 (Simulation time: 04 hr 03 min 17 sec)
Heartbeat CPU 1 instructions: 610000001 cycles: 152509968 heartbeat IPC: 4 cumulative IPC: 4 (Simulation time: 04 hr 07 min 08 sec)
Heartbeat CPU 3 instructions: 610000003 cycles: 152510126 heartbeat IPC: 4 cumulative IPC: 4 (Simulation time: 04 hr 07 min 08 sec)
Heartbeat CPU 2 instructions: 610000002 cycles: 152512548 heartbeat IPC: 4 cumulative IPC: 4 (Simulation time: 04 hr 07 min 09 sec)
Heartbeat CPU 1 instructions: 620000001 cycles: 155009968 heartbeat IPC: 4 cumulative IPC: 4 (Simulation time: 04 hr 10 min 55 sec)
Heartbeat CPU 3 instructions: 620000003 cycles: 155010126 heartbeat IPC: 4 cumulative IPC: 4 (Simulation time: 04 hr 10 min 55 sec)
Heartbeat CPU 2 instructions: 620000002 cycles: 155012548 heartbeat IPC: 4 cumulative IPC: 4 (Simulation time: 04 hr 10 min 55 sec)
Heartbeat CPU 0 instructions: 210000031 cycles: 156017546 heartbeat IPC: 0.8765 cumulative IPC: 0.8765 (Simulation time: 04 hr 12 min 30 sec)
Simulation finished CPU 3 instructions: 50000000 cycles: 12500000 cumulative IPC: 4 (Simulation time: 04 hr 14 min 08 sec)
Simulation finished CPU 2 instructions: 50000000 cycles: 12500000 cumulative IPC: 4 (Simulation time: 04 hr 14 min 08 sec)
Simulation finished CPU 1 instructions: 50000000 cycles: 12500000 cumulative IPC: 4 (Simulation time: 04 hr 14 min 08 sec)
Heartbeat CPU 1 instructions: 630000001 cycles: 157509968 heartbeat IPC: 4 cumulative IPC: 4 (Simulation time: 04 hr 14 min 47 sec)
Heartbeat CPU 3 instructions: 630000003 cycles: 157510126 heartbeat IPC: 4 cumulative IPC: 4 (Simulation time: 04 hr 14 min 47 sec)
Heartbeat CPU 2 instructions: 630000002 cycles: 157512548 heartbeat IPC: 4 cumulative IPC: 4 (Simulation time: 04 hr 14 min 47 sec)
Heartbeat CPU 1 instructions: 640000001 cycles: 160009968 heartbeat IPC: 4 cumulative IPC: 4 (Simulation time: 04 hr 18 min 51 sec)
Heartbeat CPU 3 instructions: 640000003 cycles: 160010126 heartbeat IPC: 4 cumulative IPC: 4 (Simulation time: 04 hr 18 min 51 sec)
Heartbeat CPU 2 instructions: 640000002 cycles: 160012548 heartbeat IPC: 4 cumulative IPC: 4 (Simulation time: 04 hr 18 min 52 sec)
*** Reached end of trace: (2, "traces/fluidanimate_8t/fluid3.champsimtrace")
Heartbeat CPU 1 instructions: 650000001 cycles: 162509968 heartbeat IPC: 4 cumulative IPC: 4 (Simulation time: 04 hr 22 min 51 sec)
Heartbeat CPU 3 instructions: 650000003 cycles: 162510126 heartbeat IPC: 4 cumulative IPC: 4 (Simulation time: 04 hr 22 min 51 sec)
Heartbeat CPU 2 instructions: 650000002 cycles: 162512548 heartbeat IPC: 4 cumulative IPC: 4 (Simulation time: 04 hr 22 min 51 sec)
Heartbeat CPU 1 instructions: 660000001 cycles: 165009968 heartbeat IPC: 4 cumulative IPC: 4 (Simulation time: 04 hr 26 min 59 sec)
Heartbeat CPU 3 instructions: 660000003 cycles: 165010126 heartbeat IPC: 4 cumulative IPC: 4 (Simulation time: 04 hr 26 min 59 sec)
Heartbeat CPU 2 instructions: 660000002 cycles: 165012548 heartbeat IPC: 4 cumulative IPC: 4 (Simulation time: 04 hr 27 min 00 sec)
*** Reached end of trace: (1, "traces/fluidanimate_8t/fluid2.champsimtrace")
Heartbeat CPU 0 instructions: 220000033 cycles: 167050686 heartbeat IPC: 0.9064 cumulative IPC: 0.8912 (Simulation time: 04 hr 30 min 19 sec)
Heartbeat CPU 1 instructions: 670000001 cycles: 167509968 heartbeat IPC: 4 cumulative IPC: 4 (Simulation time: 04 hr 31 min 06 sec)
Heartbeat CPU 3 instructions: 670000003 cycles: 167510126 heartbeat IPC: 4 cumulative IPC: 4 (Simulation time: 04 hr 31 min 06 sec)
Heartbeat CPU 2 instructions: 670000002 cycles: 167512548 heartbeat IPC: 4 cumulative IPC: 4 (Simulation time: 04 hr 31 min 06 sec)
*** Reached end of trace: (3, "traces/fluidanimate_8t/fluid4.champsimtrace")
Heartbeat CPU 1 instructions: 680000001 cycles: 170009968 heartbeat IPC: 4 cumulative IPC: 4 (Simulation time: 04 hr 35 min 00 sec)
Heartbeat CPU 3 instructions: 680000003 cycles: 170010126 heartbeat IPC: 4 cumulative IPC: 4 (Simulation time: 04 hr 35 min 00 sec)
Heartbeat CPU 2 instructions: 680000002 cycles: 170012548 heartbeat IPC: 4 cumulative IPC: 4 (Simulation time: 04 hr 35 min 00 sec)
Heartbeat CPU 1 instructions: 690000001 cycles: 172509968 heartbeat IPC: 4 cumulative IPC: 4 (Simulation time: 04 hr 39 min 08 sec)
Heartbeat CPU 3 instructions: 690000003 cycles: 172510126 heartbeat IPC: 4 cumulative IPC: 4 (Simulation time: 04 hr 39 min 08 sec)
Heartbeat CPU 2 instructions: 690000002 cycles: 172512548 heartbeat IPC: 4 cumulative IPC: 4 (Simulation time: 04 hr 39 min 08 sec)
Heartbeat CPU 0 instructions: 230000034 cycles: 173935615 heartbeat IPC: 1.452 cumulative IPC: 1.023 (Simulation time: 04 hr 41 min 13 sec)
Heartbeat CPU 1 instructions: 700000001 cycles: 175009968 heartbeat IPC: 4 cumulative IPC: 4 (Simulation time: 04 hr 42 min 58 sec)
Heartbeat CPU 3 instructions: 700000003 cycles: 175010126 heartbeat IPC: 4 cumulative IPC: 4 (Simulation time: 04 hr 42 min 58 sec)
Heartbeat CPU 2 instructions: 700000002 cycles: 175012548 heartbeat IPC: 4 cumulative IPC: 4 (Simulation time: 04 hr 42 min 58 sec)
Heartbeat CPU 1 instructions: 710000001 cycles: 177509968 heartbeat IPC: 4 cumulative IPC: 4 (Simulation time: 04 hr 46 min 57 sec)
Heartbeat CPU 3 instructions: 710000003 cycles: 177510126 heartbeat IPC: 4 cumulative IPC: 4 (Simulation time: 04 hr 46 min 57 sec)
Heartbeat CPU 2 instructions: 710000002 cycles: 177512548 heartbeat IPC: 4 cumulative IPC: 4 (Simulation time: 04 hr 46 min 57 sec)
Heartbeat CPU 1 instructions: 720000001 cycles: 180009968 heartbeat IPC: 4 cumulative IPC: 4 (Simulation time: 04 hr 50 min 49 sec)
Heartbeat CPU 3 instructions: 720000003 cycles: 180010126 heartbeat IPC: 4 cumulative IPC: 4 (Simulation time: 04 hr 50 min 49 sec)
Heartbeat CPU 2 instructions: 720000002 cycles: 180012548 heartbeat IPC: 4 cumulative IPC: 4 (Simulation time: 04 hr 50 min 49 sec)
Heartbeat CPU 0 instructions: 240000036 cycles: 181763949 heartbeat IPC: 1.277 cumulative IPC: 1.077 (Simulation time: 04 hr 54 min 07 sec)
Heartbeat CPU 1 instructions: 730000001 cycles: 182509968 heartbeat IPC: 4 cumulative IPC: 4 (Simulation time: 04 hr 55 min 38 sec)
Heartbeat CPU 3 instructions: 730000003 cycles: 182510126 heartbeat IPC: 4 cumulative IPC: 4 (Simulation time: 04 hr 55 min 38 sec)
Heartbeat CPU 2 instructions: 730000002 cycles: 182512548 heartbeat IPC: 4 cumulative IPC: 4 (Simulation time: 04 hr 55 min 38 sec)
Heartbeat CPU 1 instructions: 740000001 cycles: 185009968 heartbeat IPC: 4 cumulative IPC: 4 (Simulation time: 05 hr 00 min 23 sec)
Heartbeat CPU 3 instructions: 740000003 cycles: 185010126 heartbeat IPC: 4 cumulative IPC: 4 (Simulation time: 05 hr 00 min 23 sec)
Heartbeat CPU 2 instructions: 740000002 cycles: 185012548 heartbeat IPC: 4 cumulative IPC: 4 (Simulation time: 05 hr 00 min 23 sec)
Heartbeat CPU 1 instructions: 750000001 cycles: 187509968 heartbeat IPC: 4 cumulative IPC: 4 (Simulation time: 05 hr 05 min 02 sec)
Heartbeat CPU 3 instructions: 750000003 cycles: 187510126 heartbeat IPC: 4 cumulative IPC: 4 (Simulation time: 05 hr 05 min 02 sec)
Heartbeat CPU 2 instructions: 750000002 cycles: 187512548 heartbeat IPC: 4 cumulative IPC: 4 (Simulation time: 05 hr 05 min 02 sec)
Heartbeat CPU 1 instructions: 760000001 cycles: 190009968 heartbeat IPC: 4 cumulative IPC: 4 (Simulation time: 05 hr 09 min 32 sec)
Heartbeat CPU 3 instructions: 760000003 cycles: 190010126 heartbeat IPC: 4 cumulative IPC: 4 (Simulation time: 05 hr 09 min 32 sec)
Heartbeat CPU 2 instructions: 760000002 cycles: 190012548 heartbeat IPC: 4 cumulative IPC: 4 (Simulation time: 05 hr 09 min 32 sec)
Heartbeat CPU 1 instructions: 770000001 cycles: 192509968 heartbeat IPC: 4 cumulative IPC: 4 (Simulation time: 05 hr 14 min 15 sec)
Heartbeat CPU 3 instructions: 770000003 cycles: 192510126 heartbeat IPC: 4 cumulative IPC: 4 (Simulation time: 05 hr 14 min 15 sec)
Heartbeat CPU 2 instructions: 770000002 cycles: 192512548 heartbeat IPC: 4 cumulative IPC: 4 (Simulation time: 05 hr 14 min 15 sec)
Simulation finished CPU 0 instructions: 50000002 cycles: 48774327 cumulative IPC: 1.025 (Simulation time: 05 hr 15 min 54 sec)
Simulation complete CPU 3 instructions: 195097308 cycles: 48774327 cumulative IPC: 4 (Simulation time: 05 hr 15 min 54 sec)
Simulation complete CPU 2 instructions: 195097308 cycles: 48774327 cumulative IPC: 4 (Simulation time: 05 hr 15 min 54 sec)
Simulation complete CPU 1 instructions: 195097308 cycles: 48774327 cumulative IPC: 4 (Simulation time: 05 hr 15 min 54 sec)
Simulation complete CPU 0 instructions: 50000002 cycles: 48774327 cumulative IPC: 1.025 (Simulation time: 05 hr 15 min 54 sec)

ChampSim completed all CPUs

=== Simulation ===
CPU 0 runs traces/fluidanimate_8t/fluid1.champsimtrace
CPU 1 runs traces/fluidanimate_8t/fluid2.champsimtrace
CPU 2 runs traces/fluidanimate_8t/fluid3.champsimtrace
CPU 3 runs traces/fluidanimate_8t/fluid4.champsimtrace

Total Simulation Statistics (not including warmup)

CPU 3 cumulative IPC: 4 instructions: 195097308 cycles: 48774327
CPU 3 Branch Prediction Accuracy: -% MPKI: 0 Average ROB Occupancy at Mispredict: -
Branch type MPKI
BRANCH_DIRECT_JUMP: 0
BRANCH_INDIRECT: 0
BRANCH_CONDITIONAL: 0
BRANCH_DIRECT_CALL: 0
BRANCH_INDIRECT_CALL: 0
BRANCH_RETURN: 0


CPU 2 cumulative IPC: 4 instructions: 195097308 cycles: 48774327
CPU 2 Branch Prediction Accuracy: -% MPKI: 0 Average ROB Occupancy at Mispredict: -
Branch type MPKI
BRANCH_DIRECT_JUMP: 0
BRANCH_INDIRECT: 0
BRANCH_CONDITIONAL: 0
BRANCH_DIRECT_CALL: 0
BRANCH_INDIRECT_CALL: 0
BRANCH_RETURN: 0


CPU 1 cumulative IPC: 4 instructions: 195097308 cycles: 48774327
CPU 1 Branch Prediction Accuracy: -% MPKI: 0 Average ROB Occupancy at Mispredict: -
Branch type MPKI
BRANCH_DIRECT_JUMP: 0
BRANCH_INDIRECT: 0
BRANCH_CONDITIONAL: 0
BRANCH_DIRECT_CALL: 0
BRANCH_INDIRECT_CALL: 0
BRANCH_RETURN: 0


CPU 0 cumulative IPC: 1.025 instructions: 50000002 cycles: 48774327
CPU 0 Branch Prediction Accuracy: -% MPKI: 0 Average ROB Occupancy at Mispredict: -
Branch type MPKI
BRANCH_DIRECT_JUMP: 0
BRANCH_INDIRECT: 0
BRANCH_CONDITIONAL: 0
BRANCH_DIRECT_CALL: 0
BRANCH_INDIRECT_CALL: 0
BRANCH_RETURN: 0

cpu3->cpu3_STLB TOTAL        ACCESS:          6 HIT:          6 MISS:          0 MSHR_MERGE:          0
cpu3->cpu3_STLB LOAD         ACCESS:          6 HIT:          6 MISS:          0 MSHR_MERGE:          0
cpu3->cpu3_STLB RFO          ACCESS:          0 HIT:          0 MISS:          0 MSHR_MERGE:          0
cpu3->cpu3_STLB PREFETCH     ACCESS:          0 HIT:          0 MISS:          0 MSHR_MERGE:          0
cpu3->cpu3_STLB WRITE        ACCESS:          0 HIT:          0 MISS:          0 MSHR_MERGE:          0
cpu3->cpu3_STLB TRANSLATION  ACCESS:          0 HIT:          0 MISS:          0 MSHR_MERGE:          0
cpu3->cpu3_STLB PREFETCH REQUESTED:          0 ISSUED:          0 USEFUL:          0 USELESS:          0
cpu3->cpu3_STLB AVERAGE MISS LATENCY: - cycles
cpu3_STLB COHERENCE INVALIDATIONS:          0
cpu3_STLB COHERENCE WRITE-HIT OTHER-SHARER EVENTS:          0
cpu3->cpu3_L2C TOTAL        ACCESS:         12 HIT:         12 MISS:          0 MSHR_MERGE:          0
cpu3->cpu3_L2C LOAD         ACCESS:         12 HIT:         12 MISS:          0 MSHR_MERGE:          0
cpu3->cpu3_L2C RFO          ACCESS:          0 HIT:          0 MISS:          0 MSHR_MERGE:          0
cpu3->cpu3_L2C PREFETCH     ACCESS:          0 HIT:          0 MISS:          0 MSHR_MERGE:          0
cpu3->cpu3_L2C WRITE        ACCESS:          0 HIT:          0 MISS:          0 MSHR_MERGE:          0
cpu3->cpu3_L2C TRANSLATION  ACCESS:          0 HIT:          0 MISS:          0 MSHR_MERGE:          0
cpu3->cpu3_L2C PREFETCH REQUESTED:          0 ISSUED:          0 USEFUL:          0 USELESS:          0
cpu3->cpu3_L2C AVERAGE MISS LATENCY: - cycles
cpu3_L2C COHERENCE INVALIDATIONS:          0
cpu3_L2C COHERENCE WRITE-HIT OTHER-SHARER EVENTS:          0
cpu3->cpu3_L1I TOTAL        ACCESS:   28776669 HIT:   28776654 MISS:         15 MSHR_MERGE:          3
cpu3->cpu3_L1I LOAD         ACCESS:   28776669 HIT:   28776654 MISS:         15 MSHR_MERGE:          3
cpu3->cpu3_L1I RFO          ACCESS:          0 HIT:          0 MISS:          0 MSHR_MERGE:          0
cpu3->cpu3_L1I PREFETCH     ACCESS:          0 HIT:          0 MISS:          0 MSHR_MERGE:          0
cpu3->cpu3_L1I WRITE        ACCESS:          0 HIT:          0 MISS:          0 MSHR_MERGE:          0
cpu3->cpu3_L1I TRANSLATION  ACCESS:          0 HIT:          0 MISS:          0 MSHR_MERGE:          0
cpu3->cpu3_L1I PREFETCH REQUESTED:          0 ISSUED:          0 USEFUL:          0 USELESS:          0
cpu3->cpu3_L1I AVERAGE MISS LATENCY: 7 cycles
cpu3_L1I COHERENCE INVALIDATIONS:          0
cpu3_L1I COHERENCE WRITE-HIT OTHER-SHARER EVENTS:          0
cpu3_L1D COHERENCE INVALIDATIONS:          0
cpu3_L1D COHERENCE WRITE-HIT OTHER-SHARER EVENTS:          0
cpu3->cpu3_ITLB TOTAL        ACCESS:   23920100 HIT:   23920086 MISS:         14 MSHR_MERGE:          8
cpu3->cpu3_ITLB LOAD         ACCESS:   23920100 HIT:   23920086 MISS:         14 MSHR_MERGE:          8
cpu3->cpu3_ITLB RFO          ACCESS:          0 HIT:          0 MISS:          0 MSHR_MERGE:          0
cpu3->cpu3_ITLB PREFETCH     ACCESS:          0 HIT:          0 MISS:          0 MSHR_MERGE:          0
cpu3->cpu3_ITLB WRITE        ACCESS:          0 HIT:          0 MISS:          0 MSHR_MERGE:          0
cpu3->cpu3_ITLB TRANSLATION  ACCESS:          0 HIT:          0 MISS:          0 MSHR_MERGE:          0
cpu3->cpu3_ITLB PREFETCH REQUESTED:          0 ISSUED:          0 USEFUL:          0 USELESS:          0
cpu3->cpu3_ITLB AVERAGE MISS LATENCY: 4 cycles
cpu3_ITLB COHERENCE INVALIDATIONS:          0
cpu3_ITLB COHERENCE WRITE-HIT OTHER-SHARER EVENTS:          0
cpu3_DTLB COHERENCE INVALIDATIONS:          0
cpu3_DTLB COHERENCE WRITE-HIT OTHER-SHARER EVENTS:          0
cpu2->cpu2_STLB TOTAL        ACCESS:          6 HIT:          6 MISS:          0 MSHR_MERGE:          0
cpu2->cpu2_STLB LOAD         ACCESS:          6 HIT:          6 MISS:          0 MSHR_MERGE:          0
cpu2->cpu2_STLB RFO          ACCESS:          0 HIT:          0 MISS:          0 MSHR_MERGE:          0
cpu2->cpu2_STLB PREFETCH     ACCESS:          0 HIT:          0 MISS:          0 MSHR_MERGE:          0
cpu2->cpu2_STLB WRITE        ACCESS:          0 HIT:          0 MISS:          0 MSHR_MERGE:          0
cpu2->cpu2_STLB TRANSLATION  ACCESS:          0 HIT:          0 MISS:          0 MSHR_MERGE:          0
cpu2->cpu2_STLB PREFETCH REQUESTED:          0 ISSUED:          0 USEFUL:          0 USELESS:          0
cpu2->cpu2_STLB AVERAGE MISS LATENCY: - cycles
cpu2_STLB COHERENCE INVALIDATIONS:          0
cpu2_STLB COHERENCE WRITE-HIT OTHER-SHARER EVENTS:          0
cpu2->cpu2_L2C TOTAL        ACCESS:          5 HIT:          5 MISS:          0 MSHR_MERGE:          0
cpu2->cpu2_L2C LOAD         ACCESS:          5 HIT:          5 MISS:          0 MSHR_MERGE:          0
cpu2->cpu2_L2C RFO          ACCESS:          0 HIT:          0 MISS:          0 MSHR_MERGE:          0
cpu2->cpu2_L2C PREFETCH     ACCESS:          0 HIT:          0 MISS:          0 MSHR_MERGE:          0
cpu2->cpu2_L2C WRITE        ACCESS:          0 HIT:          0 MISS:          0 MSHR_MERGE:          0
cpu2->cpu2_L2C TRANSLATION  ACCESS:          0 HIT:          0 MISS:          0 MSHR_MERGE:          0
cpu2->cpu2_L2C PREFETCH REQUESTED:          0 ISSUED:          0 USEFUL:          0 USELESS:          0
cpu2->cpu2_L2C AVERAGE MISS LATENCY: - cycles
cpu2_L2C COHERENCE INVALIDATIONS:          0
cpu2_L2C COHERENCE WRITE-HIT OTHER-SHARER EVENTS:          0
cpu2->cpu2_L1I TOTAL        ACCESS:   29402306 HIT:   29402299 MISS:          7 MSHR_MERGE:          2
cpu2->cpu2_L1I LOAD         ACCESS:   29402306 HIT:   29402299 MISS:          7 MSHR_MERGE:          2
cpu2->cpu2_L1I RFO          ACCESS:          0 HIT:          0 MISS:          0 MSHR_MERGE:          0
cpu2->cpu2_L1I PREFETCH     ACCESS:          0 HIT:          0 MISS:          0 MSHR_MERGE:          0
cpu2->cpu2_L1I WRITE        ACCESS:          0 HIT:          0 MISS:          0 MSHR_MERGE:          0
cpu2->cpu2_L1I TRANSLATION  ACCESS:          0 HIT:          0 MISS:          0 MSHR_MERGE:          0
cpu2->cpu2_L1I PREFETCH REQUESTED:          0 ISSUED:          0 USEFUL:          0 USELESS:          0
cpu2->cpu2_L1I AVERAGE MISS LATENCY: 7 cycles
cpu2_L1I COHERENCE INVALIDATIONS:          0
cpu2_L1I COHERENCE WRITE-HIT OTHER-SHARER EVENTS:          0
cpu2_L1D COHERENCE INVALIDATIONS:          0
cpu2_L1D COHERENCE WRITE-HIT OTHER-SHARER EVENTS:          0
cpu2->cpu2_ITLB TOTAL        ACCESS:   23991297 HIT:   23991283 MISS:         14 MSHR_MERGE:          8
cpu2->cpu2_ITLB LOAD         ACCESS:   23991297 HIT:   23991283 MISS:         14 MSHR_MERGE:          8
cpu2->cpu2_ITLB RFO          ACCESS:          0 HIT:          0 MISS:          0 MSHR_MERGE:          0
cpu2->cpu2_ITLB PREFETCH     ACCESS:          0 HIT:          0 MISS:          0 MSHR_MERGE:          0
cpu2->cpu2_ITLB WRITE        ACCESS:          0 HIT:          0 MISS:          0 MSHR_MERGE:          0
cpu2->cpu2_ITLB TRANSLATION  ACCESS:          0 HIT:          0 MISS:          0 MSHR_MERGE:          0
cpu2->cpu2_ITLB PREFETCH REQUESTED:          0 ISSUED:          0 USEFUL:          0 USELESS:          0
cpu2->cpu2_ITLB AVERAGE MISS LATENCY: 4 cycles
cpu2_ITLB COHERENCE INVALIDATIONS:          0
cpu2_ITLB COHERENCE WRITE-HIT OTHER-SHARER EVENTS:          0
cpu2_DTLB COHERENCE INVALIDATIONS:          0
cpu2_DTLB COHERENCE WRITE-HIT OTHER-SHARER EVENTS:          0
cpu1->cpu1_STLB TOTAL        ACCESS:          6 HIT:          6 MISS:          0 MSHR_MERGE:          0
cpu1->cpu1_STLB LOAD         ACCESS:          6 HIT:          6 MISS:          0 MSHR_MERGE:          0
cpu1->cpu1_STLB RFO          ACCESS:          0 HIT:          0 MISS:          0 MSHR_MERGE:          0
cpu1->cpu1_STLB PREFETCH     ACCESS:          0 HIT:          0 MISS:          0 MSHR_MERGE:          0
cpu1->cpu1_STLB WRITE        ACCESS:          0 HIT:          0 MISS:          0 MSHR_MERGE:          0
cpu1->cpu1_STLB TRANSLATION  ACCESS:          0 HIT:          0 MISS:          0 MSHR_MERGE:          0
cpu1->cpu1_STLB PREFETCH REQUESTED:          0 ISSUED:          0 USEFUL:          0 USELESS:          0
cpu1->cpu1_STLB AVERAGE MISS LATENCY: - cycles
cpu1_STLB COHERENCE INVALIDATIONS:          0
cpu1_STLB COHERENCE WRITE-HIT OTHER-SHARER EVENTS:          0
cpu1->cpu1_L2C TOTAL        ACCESS:         12 HIT:         12 MISS:          0 MSHR_MERGE:          0
cpu1->cpu1_L2C LOAD         ACCESS:         12 HIT:         12 MISS:          0 MSHR_MERGE:          0
cpu1->cpu1_L2C RFO          ACCESS:          0 HIT:          0 MISS:          0 MSHR_MERGE:          0
cpu1->cpu1_L2C PREFETCH     ACCESS:          0 HIT:          0 MISS:          0 MSHR_MERGE:          0
cpu1->cpu1_L2C WRITE        ACCESS:          0 HIT:          0 MISS:          0 MSHR_MERGE:          0
cpu1->cpu1_L2C TRANSLATION  ACCESS:          0 HIT:          0 MISS:          0 MSHR_MERGE:          0
cpu1->cpu1_L2C PREFETCH REQUESTED:          0 ISSUED:          0 USEFUL:          0 USELESS:          0
cpu1->cpu1_L2C AVERAGE MISS LATENCY: - cycles
cpu1_L2C COHERENCE INVALIDATIONS:          0
cpu1_L2C COHERENCE WRITE-HIT OTHER-SHARER EVENTS:          0
cpu1->cpu1_L1I TOTAL        ACCESS:   30239560 HIT:   30239545 MISS:         15 MSHR_MERGE:          3
cpu1->cpu1_L1I LOAD         ACCESS:   30239560 HIT:   30239545 MISS:         15 MSHR_MERGE:          3
cpu1->cpu1_L1I RFO          ACCESS:          0 HIT:          0 MISS:          0 MSHR_MERGE:          0
cpu1->cpu1_L1I PREFETCH     ACCESS:          0 HIT:          0 MISS:          0 MSHR_MERGE:          0
cpu1->cpu1_L1I WRITE        ACCESS:          0 HIT:          0 MISS:          0 MSHR_MERGE:          0
cpu1->cpu1_L1I TRANSLATION  ACCESS:          0 HIT:          0 MISS:          0 MSHR_MERGE:          0
cpu1->cpu1_L1I PREFETCH REQUESTED:          0 ISSUED:          0 USEFUL:          0 USELESS:          0
cpu1->cpu1_L1I AVERAGE MISS LATENCY: 7.25 cycles
cpu1_L1I COHERENCE INVALIDATIONS:          0
cpu1_L1I COHERENCE WRITE-HIT OTHER-SHARER EVENTS:          0
cpu1_L1D COHERENCE INVALIDATIONS:          0
cpu1_L1D COHERENCE WRITE-HIT OTHER-SHARER EVENTS:          0
cpu1->cpu1_ITLB TOTAL        ACCESS:   24128291 HIT:   24128277 MISS:         14 MSHR_MERGE:          8
cpu1->cpu1_ITLB LOAD         ACCESS:   24128291 HIT:   24128277 MISS:         14 MSHR_MERGE:          8
cpu1->cpu1_ITLB RFO          ACCESS:          0 HIT:          0 MISS:          0 MSHR_MERGE:          0
cpu1->cpu1_ITLB PREFETCH     ACCESS:          0 HIT:          0 MISS:          0 MSHR_MERGE:          0
cpu1->cpu1_ITLB WRITE        ACCESS:          0 HIT:          0 MISS:          0 MSHR_MERGE:          0
cpu1->cpu1_ITLB TRANSLATION  ACCESS:          0 HIT:          0 MISS:          0 MSHR_MERGE:          0
cpu1->cpu1_ITLB PREFETCH REQUESTED:          0 ISSUED:          0 USEFUL:          0 USELESS:          0
cpu1->cpu1_ITLB AVERAGE MISS LATENCY: 4 cycles
cpu1_ITLB COHERENCE INVALIDATIONS:          0
cpu1_ITLB COHERENCE WRITE-HIT OTHER-SHARER EVENTS:          0
cpu1_DTLB COHERENCE INVALIDATIONS:          0
cpu1_DTLB COHERENCE WRITE-HIT OTHER-SHARER EVENTS:          0
cpu0->cpu0_STLB TOTAL        ACCESS:    1355150 HIT:    1355023 MISS:        127 MSHR_MERGE:          0
cpu0->cpu0_STLB LOAD         ACCESS:    1355150 HIT:    1355023 MISS:        127 MSHR_MERGE:          0
cpu0->cpu0_STLB RFO          ACCESS:          0 HIT:          0 MISS:          0 MSHR_MERGE:          0
cpu0->cpu0_STLB PREFETCH     ACCESS:          0 HIT:          0 MISS:          0 MSHR_MERGE:          0
cpu0->cpu0_STLB WRITE        ACCESS:          0 HIT:          0 MISS:          0 MSHR_MERGE:          0
cpu0->cpu0_STLB TRANSLATION  ACCESS:          0 HIT:          0 MISS:          0 MSHR_MERGE:          0
cpu0->cpu0_STLB PREFETCH REQUESTED:          0 ISSUED:          0 USEFUL:          0 USELESS:          0
cpu0->cpu0_STLB AVERAGE MISS LATENCY: 669.3 cycles
cpu0_STLB COHERENCE INVALIDATIONS:          0
cpu0_STLB COHERENCE WRITE-HIT OTHER-SHARER EVENTS:          0
cpu0->cpu0_L2C TOTAL        ACCESS:     910574 HIT:     729857 MISS:     180717 MSHR_MERGE:          0
cpu0->cpu0_L2C LOAD         ACCESS:     910363 HIT:     729857 MISS:     180506 MSHR_MERGE:          0
cpu0->cpu0_L2C RFO          ACCESS:          0 HIT:          0 MISS:          0 MSHR_MERGE:          0
cpu0->cpu0_L2C PREFETCH     ACCESS:          0 HIT:          0 MISS:          0 MSHR_MERGE:          0
cpu0->cpu0_L2C WRITE        ACCESS:          0 HIT:          0 MISS:          0 MSHR_MERGE:          0
cpu0->cpu0_L2C TRANSLATION  ACCESS:        211 HIT:          0 MISS:        211 MSHR_MERGE:          0
cpu0->cpu0_L2C PREFETCH REQUESTED:          0 ISSUED:          0 USEFUL:          0 USELESS:          0
cpu0->cpu0_L2C AVERAGE MISS LATENCY: 104.3 cycles
cpu0_L2C COHERENCE INVALIDATIONS:          0
cpu0_L2C COHERENCE WRITE-HIT OTHER-SHARER EVENTS:          0
cpu0->cpu0_L1I TOTAL        ACCESS:   15789726 HIT:   14854832 MISS:     934894 MSHR_MERGE:      24531
cpu0->cpu0_L1I LOAD         ACCESS:   15789726 HIT:   14854832 MISS:     934894 MSHR_MERGE:      24531
cpu0->cpu0_L1I RFO          ACCESS:          0 HIT:          0 MISS:          0 MSHR_MERGE:          0
cpu0->cpu0_L1I PREFETCH     ACCESS:          0 HIT:          0 MISS:          0 MSHR_MERGE:          0
cpu0->cpu0_L1I WRITE        ACCESS:          0 HIT:          0 MISS:          0 MSHR_MERGE:          0
cpu0->cpu0_L1I TRANSLATION  ACCESS:          0 HIT:          0 MISS:          0 MSHR_MERGE:          0
cpu0->cpu0_L1I PREFETCH REQUESTED:          0 ISSUED:          0 USEFUL:          0 USELESS:          0
cpu0->cpu0_L1I AVERAGE MISS LATENCY: 27.86 cycles
cpu0_L1I COHERENCE INVALIDATIONS:          0
cpu0_L1I COHERENCE WRITE-HIT OTHER-SHARER EVENTS:          0
cpu0->cpu0_L1D TOTAL        ACCESS:        254 HIT:         43 MISS:        211 MSHR_MERGE:          0
cpu0->cpu0_L1D LOAD         ACCESS:          0 HIT:          0 MISS:          0 MSHR_MERGE:          0
cpu0->cpu0_L1D RFO          ACCESS:          0 HIT:          0 MISS:          0 MSHR_MERGE:          0
cpu0->cpu0_L1D PREFETCH     ACCESS:          0 HIT:          0 MISS:          0 MSHR_MERGE:          0
cpu0->cpu0_L1D WRITE        ACCESS:          0 HIT:          0 MISS:          0 MSHR_MERGE:          0
cpu0->cpu0_L1D TRANSLATION  ACCESS:        254 HIT:         43 MISS:        211 MSHR_MERGE:          0
cpu0->cpu0_L1D PREFETCH REQUESTED:          0 ISSUED:          0 USEFUL:          0 USELESS:          0
cpu0->cpu0_L1D AVERAGE MISS LATENCY: 200.6 cycles
cpu0_L1D COHERENCE INVALIDATIONS:          0
cpu0_L1D COHERENCE WRITE-HIT OTHER-SHARER EVENTS:          0
cpu0->cpu0_ITLB TOTAL        ACCESS:   15622293 HIT:   14158505 MISS:    1463788 MSHR_MERGE:     108638
cpu0->cpu0_ITLB LOAD         ACCESS:   15622293 HIT:   14158505 MISS:    1463788 MSHR_MERGE:     108638
cpu0->cpu0_ITLB RFO          ACCESS:          0 HIT:          0 MISS:          0 MSHR_MERGE:          0
cpu0->cpu0_ITLB PREFETCH     ACCESS:          0 HIT:          0 MISS:          0 MSHR_MERGE:          0
cpu0->cpu0_ITLB WRITE        ACCESS:          0 HIT:          0 MISS:          0 MSHR_MERGE:          0
cpu0->cpu0_ITLB TRANSLATION  ACCESS:          0 HIT:          0 MISS:          0 MSHR_MERGE:          0
cpu0->cpu0_ITLB PREFETCH REQUESTED:          0 ISSUED:          0 USEFUL:          0 USELESS:          0
cpu0->cpu0_ITLB AVERAGE MISS LATENCY: 4.082 cycles
cpu0_ITLB COHERENCE INVALIDATIONS:          0
cpu0_ITLB COHERENCE WRITE-HIT OTHER-SHARER EVENTS:          0
cpu0_DTLB COHERENCE INVALIDATIONS:          0
cpu0_DTLB COHERENCE WRITE-HIT OTHER-SHARER EVENTS:          0
cpu0->LLC TOTAL        ACCESS:     180717 HIT:      88689 MISS:      92028 MSHR_MERGE:          0
cpu0->LLC LOAD         ACCESS:     180506 HIT:      88683 MISS:      91823 MSHR_MERGE:          0
cpu0->LLC RFO          ACCESS:          0 HIT:          0 MISS:          0 MSHR_MERGE:          0
cpu0->LLC PREFETCH     ACCESS:          0 HIT:          0 MISS:          0 MSHR_MERGE:          0
cpu0->LLC WRITE        ACCESS:          0 HIT:          0 MISS:          0 MSHR_MERGE:          0
cpu0->LLC TRANSLATION  ACCESS:        211 HIT:          6 MISS:        205 MSHR_MERGE:          0
cpu0->LLC PREFETCH REQUESTED:          0 ISSUED:          0 USEFUL:          0 USELESS:          0
cpu0->LLC AVERAGE MISS LATENCY: 174.4 cycles
LLC COHERENCE INVALIDATIONS:          0
LLC COHERENCE WRITE-HIT OTHER-SHARER EVENTS:          0

Region of Interest Statistics

CPU 3 cumulative IPC: 4 instructions: 50000000 cycles: 12500000
CPU 3 Branch Prediction Accuracy: -% MPKI: 0 Average ROB Occupancy at Mispredict: -
Branch type MPKI
BRANCH_DIRECT_JUMP: 0
BRANCH_INDIRECT: 0
BRANCH_CONDITIONAL: 0
BRANCH_DIRECT_CALL: 0
BRANCH_INDIRECT_CALL: 0
BRANCH_RETURN: 0


CPU 2 cumulative IPC: 4 instructions: 50000000 cycles: 12500000
CPU 2 Branch Prediction Accuracy: -% MPKI: 0 Average ROB Occupancy at Mispredict: -
Branch type MPKI
BRANCH_DIRECT_JUMP: 0
BRANCH_INDIRECT: 0
BRANCH_CONDITIONAL: 0
BRANCH_DIRECT_CALL: 0
BRANCH_INDIRECT_CALL: 0
BRANCH_RETURN: 0


CPU 1 cumulative IPC: 4 instructions: 50000000 cycles: 12500000
CPU 1 Branch Prediction Accuracy: -% MPKI: 0 Average ROB Occupancy at Mispredict: -
Branch type MPKI
BRANCH_DIRECT_JUMP: 0
BRANCH_INDIRECT: 0
BRANCH_CONDITIONAL: 0
BRANCH_DIRECT_CALL: 0
BRANCH_INDIRECT_CALL: 0
BRANCH_RETURN: 0


CPU 0 cumulative IPC: 1.025 instructions: 50000002 cycles: 48774327
CPU 0 Branch Prediction Accuracy: -% MPKI: 0 Average ROB Occupancy at Mispredict: -
Branch type MPKI
BRANCH_DIRECT_JUMP: 0
BRANCH_INDIRECT: 0
BRANCH_CONDITIONAL: 0
BRANCH_DIRECT_CALL: 0
BRANCH_INDIRECT_CALL: 0
BRANCH_RETURN: 0

cpu3->cpu3_STLB TOTAL        ACCESS:          6 HIT:          6 MISS:          0 MSHR_MERGE:          0
cpu3->cpu3_STLB LOAD         ACCESS:          6 HIT:          6 MISS:          0 MSHR_MERGE:          0
cpu3->cpu3_STLB RFO          ACCESS:          0 HIT:          0 MISS:          0 MSHR_MERGE:          0
cpu3->cpu3_STLB PREFETCH     ACCESS:          0 HIT:          0 MISS:          0 MSHR_MERGE:          0
cpu3->cpu3_STLB WRITE        ACCESS:          0 HIT:          0 MISS:          0 MSHR_MERGE:          0
cpu3->cpu3_STLB TRANSLATION  ACCESS:          0 HIT:          0 MISS:          0 MSHR_MERGE:          0
cpu3->cpu3_STLB PREFETCH REQUESTED:          0 ISSUED:          0 USEFUL:          0 USELESS:          0
cpu3->cpu3_STLB AVERAGE MISS LATENCY: - cycles
cpu3_STLB COHERENCE INVALIDATIONS:          0
cpu3_STLB COHERENCE WRITE-HIT OTHER-SHARER EVENTS:          0
cpu3->cpu3_L2C TOTAL        ACCESS:         12 HIT:         12 MISS:          0 MSHR_MERGE:          0
cpu3->cpu3_L2C LOAD         ACCESS:         12 HIT:         12 MISS:          0 MSHR_MERGE:          0
cpu3->cpu3_L2C RFO          ACCESS:          0 HIT:          0 MISS:          0 MSHR_MERGE:          0
cpu3->cpu3_L2C PREFETCH     ACCESS:          0 HIT:          0 MISS:          0 MSHR_MERGE:          0
cpu3->cpu3_L2C WRITE        ACCESS:          0 HIT:          0 MISS:          0 MSHR_MERGE:          0
cpu3->cpu3_L2C TRANSLATION  ACCESS:          0 HIT:          0 MISS:          0 MSHR_MERGE:          0
cpu3->cpu3_L2C PREFETCH REQUESTED:          0 ISSUED:          0 USEFUL:          0 USELESS:          0
cpu3->cpu3_L2C AVERAGE MISS LATENCY: - cycles
cpu3_L2C COHERENCE INVALIDATIONS:          0
cpu3_L2C COHERENCE WRITE-HIT OTHER-SHARER EVENTS:          0
cpu3->cpu3_L1I TOTAL        ACCESS:   28776669 HIT:   28776654 MISS:         15 MSHR_MERGE:          3
cpu3->cpu3_L1I LOAD         ACCESS:   28776669 HIT:   28776654 MISS:         15 MSHR_MERGE:          3
cpu3->cpu3_L1I RFO          ACCESS:          0 HIT:          0 MISS:          0 MSHR_MERGE:          0
cpu3->cpu3_L1I PREFETCH     ACCESS:          0 HIT:          0 MISS:          0 MSHR_MERGE:          0
cpu3->cpu3_L1I WRITE        ACCESS:          0 HIT:          0 MISS:          0 MSHR_MERGE:          0
cpu3->cpu3_L1I TRANSLATION  ACCESS:          0 HIT:          0 MISS:          0 MSHR_MERGE:          0
cpu3->cpu3_L1I PREFETCH REQUESTED:          0 ISSUED:          0 USEFUL:          0 USELESS:          0
cpu3->cpu3_L1I AVERAGE MISS LATENCY: 7 cycles
cpu3_L1I COHERENCE INVALIDATIONS:          0
cpu3_L1I COHERENCE WRITE-HIT OTHER-SHARER EVENTS:          0
cpu3_L1D COHERENCE INVALIDATIONS:          0
cpu3_L1D COHERENCE WRITE-HIT OTHER-SHARER EVENTS:          0
cpu3->cpu3_ITLB TOTAL        ACCESS:   23920100 HIT:   23920086 MISS:         14 MSHR_MERGE:          8
cpu3->cpu3_ITLB LOAD         ACCESS:   23920100 HIT:   23920086 MISS:         14 MSHR_MERGE:          8
cpu3->cpu3_ITLB RFO          ACCESS:          0 HIT:          0 MISS:          0 MSHR_MERGE:          0
cpu3->cpu3_ITLB PREFETCH     ACCESS:          0 HIT:          0 MISS:          0 MSHR_MERGE:          0
cpu3->cpu3_ITLB WRITE        ACCESS:          0 HIT:          0 MISS:          0 MSHR_MERGE:          0
cpu3->cpu3_ITLB TRANSLATION  ACCESS:          0 HIT:          0 MISS:          0 MSHR_MERGE:          0
cpu3->cpu3_ITLB PREFETCH REQUESTED:          0 ISSUED:          0 USEFUL:          0 USELESS:          0
cpu3->cpu3_ITLB AVERAGE MISS LATENCY: 4 cycles
cpu3_ITLB COHERENCE INVALIDATIONS:          0
cpu3_ITLB COHERENCE WRITE-HIT OTHER-SHARER EVENTS:          0
cpu3_DTLB COHERENCE INVALIDATIONS:          0
cpu3_DTLB COHERENCE WRITE-HIT OTHER-SHARER EVENTS:          0
cpu2->cpu2_STLB TOTAL        ACCESS:          6 HIT:          6 MISS:          0 MSHR_MERGE:          0
cpu2->cpu2_STLB LOAD         ACCESS:          6 HIT:          6 MISS:          0 MSHR_MERGE:          0
cpu2->cpu2_STLB RFO          ACCESS:          0 HIT:          0 MISS:          0 MSHR_MERGE:          0
cpu2->cpu2_STLB PREFETCH     ACCESS:          0 HIT:          0 MISS:          0 MSHR_MERGE:          0
cpu2->cpu2_STLB WRITE        ACCESS:          0 HIT:          0 MISS:          0 MSHR_MERGE:          0
cpu2->cpu2_STLB TRANSLATION  ACCESS:          0 HIT:          0 MISS:          0 MSHR_MERGE:          0
cpu2->cpu2_STLB PREFETCH REQUESTED:          0 ISSUED:          0 USEFUL:          0 USELESS:          0
cpu2->cpu2_STLB AVERAGE MISS LATENCY: - cycles
cpu2_STLB COHERENCE INVALIDATIONS:          0
cpu2_STLB COHERENCE WRITE-HIT OTHER-SHARER EVENTS:          0
cpu2->cpu2_L2C TOTAL        ACCESS:          5 HIT:          5 MISS:          0 MSHR_MERGE:          0
cpu2->cpu2_L2C LOAD         ACCESS:          5 HIT:          5 MISS:          0 MSHR_MERGE:          0
cpu2->cpu2_L2C RFO          ACCESS:          0 HIT:          0 MISS:          0 MSHR_MERGE:          0
cpu2->cpu2_L2C PREFETCH     ACCESS:          0 HIT:          0 MISS:          0 MSHR_MERGE:          0
cpu2->cpu2_L2C WRITE        ACCESS:          0 HIT:          0 MISS:          0 MSHR_MERGE:          0
cpu2->cpu2_L2C TRANSLATION  ACCESS:          0 HIT:          0 MISS:          0 MSHR_MERGE:          0
cpu2->cpu2_L2C PREFETCH REQUESTED:          0 ISSUED:          0 USEFUL:          0 USELESS:          0
cpu2->cpu2_L2C AVERAGE MISS LATENCY: - cycles
cpu2_L2C COHERENCE INVALIDATIONS:          0
cpu2_L2C COHERENCE WRITE-HIT OTHER-SHARER EVENTS:          0
cpu2->cpu2_L1I TOTAL        ACCESS:   29402306 HIT:   29402299 MISS:          7 MSHR_MERGE:          2
cpu2->cpu2_L1I LOAD         ACCESS:   29402306 HIT:   29402299 MISS:          7 MSHR_MERGE:          2
cpu2->cpu2_L1I RFO          ACCESS:          0 HIT:          0 MISS:          0 MSHR_MERGE:          0
cpu2->cpu2_L1I PREFETCH     ACCESS:          0 HIT:          0 MISS:          0 MSHR_MERGE:          0
cpu2->cpu2_L1I WRITE        ACCESS:          0 HIT:          0 MISS:          0 MSHR_MERGE:          0
cpu2->cpu2_L1I TRANSLATION  ACCESS:          0 HIT:          0 MISS:          0 MSHR_MERGE:          0
cpu2->cpu2_L1I PREFETCH REQUESTED:          0 ISSUED:          0 USEFUL:          0 USELESS:          0
cpu2->cpu2_L1I AVERAGE MISS LATENCY: 7 cycles
cpu2_L1I COHERENCE INVALIDATIONS:          0
cpu2_L1I COHERENCE WRITE-HIT OTHER-SHARER EVENTS:          0
cpu2_L1D COHERENCE INVALIDATIONS:          0
cpu2_L1D COHERENCE WRITE-HIT OTHER-SHARER EVENTS:          0
cpu2->cpu2_ITLB TOTAL        ACCESS:   23991297 HIT:   23991283 MISS:         14 MSHR_MERGE:          8
cpu2->cpu2_ITLB LOAD         ACCESS:   23991297 HIT:   23991283 MISS:         14 MSHR_MERGE:          8
cpu2->cpu2_ITLB RFO          ACCESS:          0 HIT:          0 MISS:          0 MSHR_MERGE:          0
cpu2->cpu2_ITLB PREFETCH     ACCESS:          0 HIT:          0 MISS:          0 MSHR_MERGE:          0
cpu2->cpu2_ITLB WRITE        ACCESS:          0 HIT:          0 MISS:          0 MSHR_MERGE:          0
cpu2->cpu2_ITLB TRANSLATION  ACCESS:          0 HIT:          0 MISS:          0 MSHR_MERGE:          0
cpu2->cpu2_ITLB PREFETCH REQUESTED:          0 ISSUED:          0 USEFUL:          0 USELESS:          0
cpu2->cpu2_ITLB AVERAGE MISS LATENCY: 4 cycles
cpu2_ITLB COHERENCE INVALIDATIONS:          0
cpu2_ITLB COHERENCE WRITE-HIT OTHER-SHARER EVENTS:          0
cpu2_DTLB COHERENCE INVALIDATIONS:          0
cpu2_DTLB COHERENCE WRITE-HIT OTHER-SHARER EVENTS:          0
cpu1->cpu1_STLB TOTAL        ACCESS:          6 HIT:          6 MISS:          0 MSHR_MERGE:          0
cpu1->cpu1_STLB LOAD         ACCESS:          6 HIT:          6 MISS:          0 MSHR_MERGE:          0
cpu1->cpu1_STLB RFO          ACCESS:          0 HIT:          0 MISS:          0 MSHR_MERGE:          0
cpu1->cpu1_STLB PREFETCH     ACCESS:          0 HIT:          0 MISS:          0 MSHR_MERGE:          0
cpu1->cpu1_STLB WRITE        ACCESS:          0 HIT:          0 MISS:          0 MSHR_MERGE:          0
cpu1->cpu1_STLB TRANSLATION  ACCESS:          0 HIT:          0 MISS:          0 MSHR_MERGE:          0
cpu1->cpu1_STLB PREFETCH REQUESTED:          0 ISSUED:          0 USEFUL:          0 USELESS:          0
cpu1->cpu1_STLB AVERAGE MISS LATENCY: - cycles
cpu1_STLB COHERENCE INVALIDATIONS:          0
cpu1_STLB COHERENCE WRITE-HIT OTHER-SHARER EVENTS:          0
cpu1->cpu1_L2C TOTAL        ACCESS:         12 HIT:         12 MISS:          0 MSHR_MERGE:          0
cpu1->cpu1_L2C LOAD         ACCESS:         12 HIT:         12 MISS:          0 MSHR_MERGE:          0
cpu1->cpu1_L2C RFO          ACCESS:          0 HIT:          0 MISS:          0 MSHR_MERGE:          0
cpu1->cpu1_L2C PREFETCH     ACCESS:          0 HIT:          0 MISS:          0 MSHR_MERGE:          0
cpu1->cpu1_L2C WRITE        ACCESS:          0 HIT:          0 MISS:          0 MSHR_MERGE:          0
cpu1->cpu1_L2C TRANSLATION  ACCESS:          0 HIT:          0 MISS:          0 MSHR_MERGE:          0
cpu1->cpu1_L2C PREFETCH REQUESTED:          0 ISSUED:          0 USEFUL:          0 USELESS:          0
cpu1->cpu1_L2C AVERAGE MISS LATENCY: - cycles
cpu1_L2C COHERENCE INVALIDATIONS:          0
cpu1_L2C COHERENCE WRITE-HIT OTHER-SHARER EVENTS:          0
cpu1->cpu1_L1I TOTAL        ACCESS:   30239560 HIT:   30239545 MISS:         15 MSHR_MERGE:          3
cpu1->cpu1_L1I LOAD         ACCESS:   30239560 HIT:   30239545 MISS:         15 MSHR_MERGE:          3
cpu1->cpu1_L1I RFO          ACCESS:          0 HIT:          0 MISS:          0 MSHR_MERGE:          0
cpu1->cpu1_L1I PREFETCH     ACCESS:          0 HIT:          0 MISS:          0 MSHR_MERGE:          0
cpu1->cpu1_L1I WRITE        ACCESS:          0 HIT:          0 MISS:          0 MSHR_MERGE:          0
cpu1->cpu1_L1I TRANSLATION  ACCESS:          0 HIT:          0 MISS:          0 MSHR_MERGE:          0
cpu1->cpu1_L1I PREFETCH REQUESTED:          0 ISSUED:          0 USEFUL:          0 USELESS:          0
cpu1->cpu1_L1I AVERAGE MISS LATENCY: 7.25 cycles
cpu1_L1I COHERENCE INVALIDATIONS:          0
cpu1_L1I COHERENCE WRITE-HIT OTHER-SHARER EVENTS:          0
cpu1_L1D COHERENCE INVALIDATIONS:          0
cpu1_L1D COHERENCE WRITE-HIT OTHER-SHARER EVENTS:          0
cpu1->cpu1_ITLB TOTAL        ACCESS:   24128291 HIT:   24128277 MISS:         14 MSHR_MERGE:          8
cpu1->cpu1_ITLB LOAD         ACCESS:   24128291 HIT:   24128277 MISS:         14 MSHR_MERGE:          8
cpu1->cpu1_ITLB RFO          ACCESS:          0 HIT:          0 MISS:          0 MSHR_MERGE:          0
cpu1->cpu1_ITLB PREFETCH     ACCESS:          0 HIT:          0 MISS:          0 MSHR_MERGE:          0
cpu1->cpu1_ITLB WRITE        ACCESS:          0 HIT:          0 MISS:          0 MSHR_MERGE:          0
cpu1->cpu1_ITLB TRANSLATION  ACCESS:          0 HIT:          0 MISS:          0 MSHR_MERGE:          0
cpu1->cpu1_ITLB PREFETCH REQUESTED:          0 ISSUED:          0 USEFUL:          0 USELESS:          0
cpu1->cpu1_ITLB AVERAGE MISS LATENCY: 4 cycles
cpu1_ITLB COHERENCE INVALIDATIONS:          0
cpu1_ITLB COHERENCE WRITE-HIT OTHER-SHARER EVENTS:          0
cpu1_DTLB COHERENCE INVALIDATIONS:          0
cpu1_DTLB COHERENCE WRITE-HIT OTHER-SHARER EVENTS:          0
cpu0->cpu0_STLB TOTAL        ACCESS:    1355150 HIT:    1355023 MISS:        127 MSHR_MERGE:          0
cpu0->cpu0_STLB LOAD         ACCESS:    1355150 HIT:    1355023 MISS:        127 MSHR_MERGE:          0
cpu0->cpu0_STLB RFO          ACCESS:          0 HIT:          0 MISS:          0 MSHR_MERGE:          0
cpu0->cpu0_STLB PREFETCH     ACCESS:          0 HIT:          0 MISS:          0 MSHR_MERGE:          0
cpu0->cpu0_STLB WRITE        ACCESS:          0 HIT:          0 MISS:          0 MSHR_MERGE:          0
cpu0->cpu0_STLB TRANSLATION  ACCESS:          0 HIT:          0 MISS:          0 MSHR_MERGE:          0
cpu0->cpu0_STLB PREFETCH REQUESTED:          0 ISSUED:          0 USEFUL:          0 USELESS:          0
cpu0->cpu0_STLB AVERAGE MISS LATENCY: 669.3 cycles
cpu0_STLB COHERENCE INVALIDATIONS:          0
cpu0_STLB COHERENCE WRITE-HIT OTHER-SHARER EVENTS:          0
cpu0->cpu0_L2C TOTAL        ACCESS:     910574 HIT:     729857 MISS:     180717 MSHR_MERGE:          0
cpu0->cpu0_L2C LOAD         ACCESS:     910363 HIT:     729857 MISS:     180506 MSHR_MERGE:          0
cpu0->cpu0_L2C RFO          ACCESS:          0 HIT:          0 MISS:          0 MSHR_MERGE:          0
cpu0->cpu0_L2C PREFETCH     ACCESS:          0 HIT:          0 MISS:          0 MSHR_MERGE:          0
cpu0->cpu0_L2C WRITE        ACCESS:          0 HIT:          0 MISS:          0 MSHR_MERGE:          0
cpu0->cpu0_L2C TRANSLATION  ACCESS:        211 HIT:          0 MISS:        211 MSHR_MERGE:          0
cpu0->cpu0_L2C PREFETCH REQUESTED:          0 ISSUED:          0 USEFUL:          0 USELESS:          0
cpu0->cpu0_L2C AVERAGE MISS LATENCY: 104.3 cycles
cpu0_L2C COHERENCE INVALIDATIONS:          0
cpu0_L2C COHERENCE WRITE-HIT OTHER-SHARER EVENTS:          0
cpu0->cpu0_L1I TOTAL        ACCESS:   15789726 HIT:   14854832 MISS:     934894 MSHR_MERGE:      24531
cpu0->cpu0_L1I LOAD         ACCESS:   15789726 HIT:   14854832 MISS:     934894 MSHR_MERGE:      24531
cpu0->cpu0_L1I RFO          ACCESS:          0 HIT:          0 MISS:          0 MSHR_MERGE:          0
cpu0->cpu0_L1I PREFETCH     ACCESS:          0 HIT:          0 MISS:          0 MSHR_MERGE:          0
cpu0->cpu0_L1I WRITE        ACCESS:          0 HIT:          0 MISS:          0 MSHR_MERGE:          0
cpu0->cpu0_L1I TRANSLATION  ACCESS:          0 HIT:          0 MISS:          0 MSHR_MERGE:          0
cpu0->cpu0_L1I PREFETCH REQUESTED:          0 ISSUED:          0 USEFUL:          0 USELESS:          0
cpu0->cpu0_L1I AVERAGE MISS LATENCY: 27.86 cycles
cpu0_L1I COHERENCE INVALIDATIONS:          0
cpu0_L1I COHERENCE WRITE-HIT OTHER-SHARER EVENTS:          0
cpu0->cpu0_L1D TOTAL        ACCESS:        254 HIT:         43 MISS:        211 MSHR_MERGE:          0
cpu0->cpu0_L1D LOAD         ACCESS:          0 HIT:          0 MISS:          0 MSHR_MERGE:          0
cpu0->cpu0_L1D RFO          ACCESS:          0 HIT:          0 MISS:          0 MSHR_MERGE:          0
cpu0->cpu0_L1D PREFETCH     ACCESS:          0 HIT:          0 MISS:          0 MSHR_MERGE:          0
cpu0->cpu0_L1D WRITE        ACCESS:          0 HIT:          0 MISS:          0 MSHR_MERGE:          0
cpu0->cpu0_L1D TRANSLATION  ACCESS:        254 HIT:         43 MISS:        211 MSHR_MERGE:          0
cpu0->cpu0_L1D PREFETCH REQUESTED:          0 ISSUED:          0 USEFUL:          0 USELESS:          0
cpu0->cpu0_L1D AVERAGE MISS LATENCY: 200.6 cycles
cpu0_L1D COHERENCE INVALIDATIONS:          0
cpu0_L1D COHERENCE WRITE-HIT OTHER-SHARER EVENTS:          0
cpu0->cpu0_ITLB TOTAL        ACCESS:   15622293 HIT:   14158505 MISS:    1463788 MSHR_MERGE:     108638
cpu0->cpu0_ITLB LOAD         ACCESS:   15622293 HIT:   14158505 MISS:    1463788 MSHR_MERGE:     108638
cpu0->cpu0_ITLB RFO          ACCESS:          0 HIT:          0 MISS:          0 MSHR_MERGE:          0
cpu0->cpu0_ITLB PREFETCH     ACCESS:          0 HIT:          0 MISS:          0 MSHR_MERGE:          0
cpu0->cpu0_ITLB WRITE        ACCESS:          0 HIT:          0 MISS:          0 MSHR_MERGE:          0
cpu0->cpu0_ITLB TRANSLATION  ACCESS:          0 HIT:          0 MISS:          0 MSHR_MERGE:          0
cpu0->cpu0_ITLB PREFETCH REQUESTED:          0 ISSUED:          0 USEFUL:          0 USELESS:          0
cpu0->cpu0_ITLB AVERAGE MISS LATENCY: 4.082 cycles
cpu0_ITLB COHERENCE INVALIDATIONS:          0
cpu0_ITLB COHERENCE WRITE-HIT OTHER-SHARER EVENTS:          0
cpu0_DTLB COHERENCE INVALIDATIONS:          0
cpu0_DTLB COHERENCE WRITE-HIT OTHER-SHARER EVENTS:          0
cpu0->LLC TOTAL        ACCESS:     180717 HIT:      88689 MISS:      92028 MSHR_MERGE:          0
cpu0->LLC LOAD         ACCESS:     180506 HIT:      88683 MISS:      91823 MSHR_MERGE:          0
cpu0->LLC RFO          ACCESS:          0 HIT:          0 MISS:          0 MSHR_MERGE:          0
cpu0->LLC PREFETCH     ACCESS:          0 HIT:          0 MISS:          0 MSHR_MERGE:          0
cpu0->LLC WRITE        ACCESS:          0 HIT:          0 MISS:          0 MSHR_MERGE:          0
cpu0->LLC TRANSLATION  ACCESS:        211 HIT:          6 MISS:        205 MSHR_MERGE:          0
cpu0->LLC PREFETCH REQUESTED:          0 ISSUED:          0 USEFUL:          0 USELESS:          0
cpu0->LLC AVERAGE MISS LATENCY: 174.4 cycles
LLC COHERENCE INVALIDATIONS:          0
LLC COHERENCE WRITE-HIT OTHER-SHARER EVENTS:          0

DRAM Statistics

Channel 0 RQ ROW_BUFFER_HIT:        567
  ROW_BUFFER_MISS:      91461
  AVG DBUS CONGESTED CYCLE: 2.674
Channel 0 WQ ROW_BUFFER_HIT:          0
  ROW_BUFFER_MISS:          0
  FULL:          0
Channel 0 REFRESHES ISSUED:       4065

VMEM ALIASED FILLS (cross-CPU shared-page hits): 101
