[VMEM] WARNING: physical memory size is smaller than virtual memory size.

*** ChampSim Multicore Out-of-Order Simulator ***
Warmup Instructions: 1000000
Simulation Instructions: 100000000
Number of CPUs: 8
Page size: 4096

Off-chip DRAM Size: 16 GiB Channels: 1 Width: 64-bit Data Rate: 3205 MT/s
Warmup finished CPU 2 instructions: 1000001 cycles: 255209 cumulative IPC: 3.918 (Simulation time: 00 hr 00 min 32 sec)
Warmup finished CPU 7 instructions: 1000001 cycles: 255215 cumulative IPC: 3.918 (Simulation time: 00 hr 00 min 32 sec)
Warmup finished CPU 4 instructions: 1000001 cycles: 255240 cumulative IPC: 3.918 (Simulation time: 00 hr 00 min 32 sec)
Warmup finished CPU 3 instructions: 1000001 cycles: 255262 cumulative IPC: 3.918 (Simulation time: 00 hr 00 min 32 sec)
Warmup finished CPU 5 instructions: 1000003 cycles: 336058 cumulative IPC: 2.976 (Simulation time: 00 hr 00 min 43 sec)
Warmup finished CPU 0 instructions: 1000003 cycles: 336617 cumulative IPC: 2.971 (Simulation time: 00 hr 00 min 43 sec)
*** Reached end of trace: (2, "traces/canneal_big2.champsimtrace")
*** Reached end of trace: (7, "traces/canneal_big2.champsimtrace")
*** Reached end of trace: (4, "traces/canneal_big4.champsimtrace")
*** Reached end of trace: (3, "traces/canneal_big3.champsimtrace")
Warmup finished CPU 1 instructions: 1000000 cycles: 2099252 cumulative IPC: 0.4764 (Simulation time: 00 hr 04 min 23 sec)
Warmup finished CPU 6 instructions: 1000000 cycles: 2103891 cumulative IPC: 0.4753 (Simulation time: 00 hr 04 min 23 sec)
Warmup complete CPU 7 instructions: 8394705 cycles: 2103891 cumulative IPC: 3.99 (Simulation time: 00 hr 04 min 23 sec)
Warmup complete CPU 6 instructions: 1000000 cycles: 2103891 cumulative IPC: 0.4753 (Simulation time: 00 hr 04 min 23 sec)
Warmup complete CPU 5 instructions: 4876744 cycles: 2103891 cumulative IPC: 2.318 (Simulation time: 00 hr 04 min 23 sec)
Warmup complete CPU 4 instructions: 8394605 cycles: 2103891 cumulative IPC: 3.99 (Simulation time: 00 hr 04 min 23 sec)
Warmup complete CPU 3 instructions: 8394517 cycles: 2103891 cumulative IPC: 3.99 (Simulation time: 00 hr 04 min 23 sec)
Warmup complete CPU 2 instructions: 8394729 cycles: 2103891 cumulative IPC: 3.99 (Simulation time: 00 hr 04 min 23 sec)
Warmup complete CPU 1 instructions: 1005189 cycles: 2103891 cumulative IPC: 0.4778 (Simulation time: 00 hr 04 min 23 sec)
Warmup complete CPU 0 instructions: 4870654 cycles: 2103891 cumulative IPC: 2.315 (Simulation time: 00 hr 04 min 23 sec)
*** Reached end of trace: (5, "traces/canneal_big0.champsimtrace")
*** Reached end of trace: (0, "traces/canneal_big0.champsimtrace")
*** Reached end of trace: (2, "traces/canneal_big2.champsimtrace")
*** Reached end of trace: (7, "traces/canneal_big2.champsimtrace")
*** Reached end of trace: (4, "traces/canneal_big4.champsimtrace")
*** Reached end of trace: (3, "traces/canneal_big3.champsimtrace")
Heartbeat CPU 2 instructions: 10000001 cycles: 2505209 heartbeat IPC: 3.992 cumulative IPC: 4 (Simulation time: 00 hr 05 min 17 sec)
Heartbeat CPU 7 instructions: 10000001 cycles: 2505215 heartbeat IPC: 3.992 cumulative IPC: 4 (Simulation time: 00 hr 05 min 17 sec)
Heartbeat CPU 4 instructions: 10000001 cycles: 2505240 heartbeat IPC: 3.992 cumulative IPC: 4 (Simulation time: 00 hr 05 min 17 sec)
Heartbeat CPU 3 instructions: 10000001 cycles: 2505262 heartbeat IPC: 3.992 cumulative IPC: 4 (Simulation time: 00 hr 05 min 17 sec)
*** Reached end of trace: (2, "traces/canneal_big2.champsimtrace")
*** Reached end of trace: (7, "traces/canneal_big2.champsimtrace")
*** Reached end of trace: (4, "traces/canneal_big4.champsimtrace")
*** Reached end of trace: (3, "traces/canneal_big3.champsimtrace")
*** Reached end of trace: (0, "traces/canneal_big0.champsimtrace")
Heartbeat CPU 0 instructions: 10000003 cycles: 4636749 heartbeat IPC: 2.157 cumulative IPC: 2.025 (Simulation time: 00 hr 09 min 59 sec)
*** Reached end of trace: (5, "traces/canneal_big0.champsimtrace")
Heartbeat CPU 5 instructions: 10000003 cycles: 4674047 heartbeat IPC: 2.139 cumulative IPC: 1.993 (Simulation time: 00 hr 10 min 04 sec)
*** Reached end of trace: (2, "traces/canneal_big2.champsimtrace")
*** Reached end of trace: (7, "traces/canneal_big2.champsimtrace")
*** Reached end of trace: (4, "traces/canneal_big4.champsimtrace")
*** Reached end of trace: (3, "traces/canneal_big3.champsimtrace")
Heartbeat CPU 2 instructions: 20000001 cycles: 5005209 heartbeat IPC: 4 cumulative IPC: 4 (Simulation time: 00 hr 10 min 49 sec)
Heartbeat CPU 7 instructions: 20000001 cycles: 5005215 heartbeat IPC: 4 cumulative IPC: 4 (Simulation time: 00 hr 10 min 49 sec)
Heartbeat CPU 4 instructions: 20000001 cycles: 5005240 heartbeat IPC: 4 cumulative IPC: 4 (Simulation time: 00 hr 10 min 49 sec)
Heartbeat CPU 3 instructions: 20000001 cycles: 5005262 heartbeat IPC: 4 cumulative IPC: 4 (Simulation time: 00 hr 10 min 49 sec)
*** Reached end of trace: (2, "traces/canneal_big2.champsimtrace")
*** Reached end of trace: (7, "traces/canneal_big2.champsimtrace")
*** Reached end of trace: (4, "traces/canneal_big4.champsimtrace")
*** Reached end of trace: (3, "traces/canneal_big3.champsimtrace")
*** Reached end of trace: (0, "traces/canneal_big0.champsimtrace")
*** Reached end of trace: (5, "traces/canneal_big0.champsimtrace")
*** Reached end of trace: (2, "traces/canneal_big2.champsimtrace")
*** Reached end of trace: (7, "traces/canneal_big2.champsimtrace")
*** Reached end of trace: (4, "traces/canneal_big4.champsimtrace")
*** Reached end of trace: (3, "traces/canneal_big3.champsimtrace")
Heartbeat CPU 2 instructions: 30000001 cycles: 7505209 heartbeat IPC: 4 cumulative IPC: 4 (Simulation time: 00 hr 16 min 22 sec)
Heartbeat CPU 7 instructions: 30000001 cycles: 7505215 heartbeat IPC: 4 cumulative IPC: 4 (Simulation time: 00 hr 16 min 22 sec)
Heartbeat CPU 4 instructions: 30000001 cycles: 7505240 heartbeat IPC: 4 cumulative IPC: 4 (Simulation time: 00 hr 16 min 22 sec)
Heartbeat CPU 3 instructions: 30000001 cycles: 7505262 heartbeat IPC: 4 cumulative IPC: 4 (Simulation time: 00 hr 16 min 22 sec)
*** Reached end of trace: (2, "traces/canneal_big2.champsimtrace")
*** Reached end of trace: (7, "traces/canneal_big2.champsimtrace")
*** Reached end of trace: (4, "traces/canneal_big4.champsimtrace")
*** Reached end of trace: (3, "traces/canneal_big3.champsimtrace")
*** Reached end of trace: (0, "traces/canneal_big0.champsimtrace")
Heartbeat CPU 0 instructions: 20000006 cycles: 9414342 heartbeat IPC: 2.093 cumulative IPC: 2.07 (Simulation time: 00 hr 20 min 35 sec)
*** Reached end of trace: (5, "traces/canneal_big0.champsimtrace")
Heartbeat CPU 5 instructions: 20000006 cycles: 9579025 heartbeat IPC: 2.039 cumulative IPC: 2.023 (Simulation time: 00 hr 20 min 57 sec)
*** Reached end of trace: (2, "traces/canneal_big2.champsimtrace")
*** Reached end of trace: (7, "traces/canneal_big2.champsimtrace")
*** Reached end of trace: (4, "traces/canneal_big4.champsimtrace")
*** Reached end of trace: (3, "traces/canneal_big3.champsimtrace")
Heartbeat CPU 2 instructions: 40000001 cycles: 10005209 heartbeat IPC: 4 cumulative IPC: 4 (Simulation time: 00 hr 21 min 54 sec)
Heartbeat CPU 7 instructions: 40000001 cycles: 10005215 heartbeat IPC: 4 cumulative IPC: 4 (Simulation time: 00 hr 21 min 54 sec)
Heartbeat CPU 4 instructions: 40000001 cycles: 10005240 heartbeat IPC: 4 cumulative IPC: 4 (Simulation time: 00 hr 21 min 54 sec)
Heartbeat CPU 3 instructions: 40000001 cycles: 10005262 heartbeat IPC: 4 cumulative IPC: 4 (Simulation time: 00 hr 21 min 54 sec)
*** Reached end of trace: (2, "traces/canneal_big2.champsimtrace")
*** Reached end of trace: (7, "traces/canneal_big2.champsimtrace")
*** Reached end of trace: (4, "traces/canneal_big4.champsimtrace")
*** Reached end of trace: (3, "traces/canneal_big3.champsimtrace")
*** Reached end of trace: (0, "traces/canneal_big0.champsimtrace")
*** Reached end of trace: (5, "traces/canneal_big0.champsimtrace")
*** Reached end of trace: (2, "traces/canneal_big2.champsimtrace")
*** Reached end of trace: (7, "traces/canneal_big2.champsimtrace")
*** Reached end of trace: (4, "traces/canneal_big4.champsimtrace")
*** Reached end of trace: (3, "traces/canneal_big3.champsimtrace")
Heartbeat CPU 2 instructions: 50000001 cycles: 12505209 heartbeat IPC: 4 cumulative IPC: 4 (Simulation time: 00 hr 27 min 28 sec)
Heartbeat CPU 7 instructions: 50000001 cycles: 12505215 heartbeat IPC: 4 cumulative IPC: 4 (Simulation time: 00 hr 27 min 28 sec)
Heartbeat CPU 4 instructions: 50000001 cycles: 12505240 heartbeat IPC: 4 cumulative IPC: 4 (Simulation time: 00 hr 27 min 28 sec)
Heartbeat CPU 3 instructions: 50000001 cycles: 12505262 heartbeat IPC: 4 cumulative IPC: 4 (Simulation time: 00 hr 27 min 28 sec)
*** Reached end of trace: (2, "traces/canneal_big2.champsimtrace")
*** Reached end of trace: (7, "traces/canneal_big2.champsimtrace")
*** Reached end of trace: (4, "traces/canneal_big4.champsimtrace")
*** Reached end of trace: (3, "traces/canneal_big3.champsimtrace")
*** Reached end of trace: (0, "traces/canneal_big0.champsimtrace")
Heartbeat CPU 0 instructions: 30000009 cycles: 14164945 heartbeat IPC: 2.105 cumulative IPC: 2.084 (Simulation time: 00 hr 31 min 17 sec)
*** Reached end of trace: (5, "traces/canneal_big0.champsimtrace")
Heartbeat CPU 5 instructions: 30000009 cycles: 14503789 heartbeat IPC: 2.031 cumulative IPC: 2.026 (Simulation time: 00 hr 32 min 03 sec)
*** Reached end of trace: (2, "traces/canneal_big2.champsimtrace")
*** Reached end of trace: (7, "traces/canneal_big2.champsimtrace")
*** Reached end of trace: (4, "traces/canneal_big4.champsimtrace")
*** Reached end of trace: (3, "traces/canneal_big3.champsimtrace")
Heartbeat CPU 2 instructions: 60000001 cycles: 15005209 heartbeat IPC: 4 cumulative IPC: 4 (Simulation time: 00 hr 33 min 10 sec)
Heartbeat CPU 7 instructions: 60000001 cycles: 15005215 heartbeat IPC: 4 cumulative IPC: 4 (Simulation time: 00 hr 33 min 10 sec)
Heartbeat CPU 4 instructions: 60000001 cycles: 15005240 heartbeat IPC: 4 cumulative IPC: 4 (Simulation time: 00 hr 33 min 10 sec)
Heartbeat CPU 3 instructions: 60000001 cycles: 15005262 heartbeat IPC: 4 cumulative IPC: 4 (Simulation time: 00 hr 33 min 10 sec)
*** Reached end of trace: (2, "traces/canneal_big2.champsimtrace")
*** Reached end of trace: (7, "traces/canneal_big2.champsimtrace")
*** Reached end of trace: (4, "traces/canneal_big4.champsimtrace")
*** Reached end of trace: (3, "traces/canneal_big3.champsimtrace")
*** Reached end of trace: (0, "traces/canneal_big0.champsimtrace")
*** Reached end of trace: (5, "traces/canneal_big0.champsimtrace")
*** Reached end of trace: (2, "traces/canneal_big2.champsimtrace")
*** Reached end of trace: (7, "traces/canneal_big2.champsimtrace")
*** Reached end of trace: (4, "traces/canneal_big4.champsimtrace")
*** Reached end of trace: (3, "traces/canneal_big3.champsimtrace")
Heartbeat CPU 2 instructions: 70000001 cycles: 17505209 heartbeat IPC: 4 cumulative IPC: 4 (Simulation time: 00 hr 38 min 44 sec)
Heartbeat CPU 7 instructions: 70000001 cycles: 17505215 heartbeat IPC: 4 cumulative IPC: 4 (Simulation time: 00 hr 38 min 44 sec)
Heartbeat CPU 4 instructions: 70000001 cycles: 17505240 heartbeat IPC: 4 cumulative IPC: 4 (Simulation time: 00 hr 38 min 44 sec)
Heartbeat CPU 3 instructions: 70000001 cycles: 17505262 heartbeat IPC: 4 cumulative IPC: 4 (Simulation time: 00 hr 38 min 44 sec)
*** Reached end of trace: (2, "traces/canneal_big2.champsimtrace")
*** Reached end of trace: (7, "traces/canneal_big2.champsimtrace")
*** Reached end of trace: (4, "traces/canneal_big4.champsimtrace")
*** Reached end of trace: (3, "traces/canneal_big3.champsimtrace")
*** Reached end of trace: (0, "traces/canneal_big0.champsimtrace")
Heartbeat CPU 0 instructions: 40000012 cycles: 18904904 heartbeat IPC: 2.11 cumulative IPC: 2.091 (Simulation time: 00 hr 41 min 49 sec)
*** Reached end of trace: (1, "traces/canneal_big1.champsimtrace")
*** Reached end of trace: (6, "traces/canneal_big1.champsimtrace")
*** Reached end of trace: (5, "traces/canneal_big0.champsimtrace")
Heartbeat CPU 5 instructions: 40000012 cycles: 19439400 heartbeat IPC: 2.026 cumulative IPC: 2.026 (Simulation time: 00 hr 43 min 00 sec)
*** Reached end of trace: (2, "traces/canneal_big2.champsimtrace")
*** Reached end of trace: (7, "traces/canneal_big2.champsimtrace")
*** Reached end of trace: (4, "traces/canneal_big4.champsimtrace")
*** Reached end of trace: (3, "traces/canneal_big3.champsimtrace")
Heartbeat CPU 2 instructions: 80000001 cycles: 20005209 heartbeat IPC: 4 cumulative IPC: 4 (Simulation time: 00 hr 44 min 14 sec)
Heartbeat CPU 7 instructions: 80000001 cycles: 20005215 heartbeat IPC: 4 cumulative IPC: 4 (Simulation time: 00 hr 44 min 14 sec)
Heartbeat CPU 4 instructions: 80000001 cycles: 20005240 heartbeat IPC: 4 cumulative IPC: 4 (Simulation time: 00 hr 44 min 14 sec)
Heartbeat CPU 3 instructions: 80000001 cycles: 20005262 heartbeat IPC: 4 cumulative IPC: 4 (Simulation time: 00 hr 44 min 14 sec)
*** Reached end of trace: (2, "traces/canneal_big2.champsimtrace")
*** Reached end of trace: (7, "traces/canneal_big2.champsimtrace")
*** Reached end of trace: (4, "traces/canneal_big4.champsimtrace")
*** Reached end of trace: (3, "traces/canneal_big3.champsimtrace")
*** Reached end of trace: (0, "traces/canneal_big0.champsimtrace")
*** Reached end of trace: (5, "traces/canneal_big0.champsimtrace")
*** Reached end of trace: (2, "traces/canneal_big2.champsimtrace")
*** Reached end of trace: (7, "traces/canneal_big2.champsimtrace")
*** Reached end of trace: (4, "traces/canneal_big4.champsimtrace")
*** Reached end of trace: (3, "traces/canneal_big3.champsimtrace")
Heartbeat CPU 2 instructions: 90000001 cycles: 22505209 heartbeat IPC: 4 cumulative IPC: 4 (Simulation time: 00 hr 49 min 51 sec)
Heartbeat CPU 7 instructions: 90000001 cycles: 22505215 heartbeat IPC: 4 cumulative IPC: 4 (Simulation time: 00 hr 49 min 51 sec)
Heartbeat CPU 4 instructions: 90000001 cycles: 22505240 heartbeat IPC: 4 cumulative IPC: 4 (Simulation time: 00 hr 49 min 51 sec)
Heartbeat CPU 3 instructions: 90000001 cycles: 22505262 heartbeat IPC: 4 cumulative IPC: 4 (Simulation time: 00 hr 49 min 51 sec)
*** Reached end of trace: (0, "traces/canneal_big0.champsimtrace")
Heartbeat CPU 0 instructions: 50000015 cycles: 23687895 heartbeat IPC: 2.091 cumulative IPC: 2.091 (Simulation time: 00 hr 52 min 29 sec)
*** Reached end of trace: (2, "traces/canneal_big2.champsimtrace")
*** Reached end of trace: (7, "traces/canneal_big2.champsimtrace")
*** Reached end of trace: (4, "traces/canneal_big4.champsimtrace")
*** Reached end of trace: (3, "traces/canneal_big3.champsimtrace")
*** Reached end of trace: (5, "traces/canneal_big0.champsimtrace")
Heartbeat CPU 5 instructions: 50000015 cycles: 24402968 heartbeat IPC: 2.015 cumulative IPC: 2.024 (Simulation time: 00 hr 54 min 06 sec)
*** Reached end of trace: (2, "traces/canneal_big2.champsimtrace")
*** Reached end of trace: (7, "traces/canneal_big2.champsimtrace")
*** Reached end of trace: (4, "traces/canneal_big4.champsimtrace")
*** Reached end of trace: (3, "traces/canneal_big3.champsimtrace")
Heartbeat CPU 2 instructions: 100000001 cycles: 25005209 heartbeat IPC: 4 cumulative IPC: 4 (Simulation time: 00 hr 55 min 26 sec)
Heartbeat CPU 7 instructions: 100000001 cycles: 25005215 heartbeat IPC: 4 cumulative IPC: 4 (Simulation time: 00 hr 55 min 26 sec)
Heartbeat CPU 4 instructions: 100000001 cycles: 25005240 heartbeat IPC: 4 cumulative IPC: 4 (Simulation time: 00 hr 55 min 26 sec)
Heartbeat CPU 3 instructions: 100000001 cycles: 25005262 heartbeat IPC: 4 cumulative IPC: 4 (Simulation time: 00 hr 55 min 26 sec)
*** Reached end of trace: (0, "traces/canneal_big0.champsimtrace")
*** Reached end of trace: (2, "traces/canneal_big2.champsimtrace")
*** Reached end of trace: (7, "traces/canneal_big2.champsimtrace")
*** Reached end of trace: (4, "traces/canneal_big4.champsimtrace")
*** Reached end of trace: (3, "traces/canneal_big3.champsimtrace")
*** Reached end of trace: (5, "traces/canneal_big0.champsimtrace")
Simulation finished CPU 7 instructions: 100000000 cycles: 25000000 cumulative IPC: 4 (Simulation time: 01 hr 00 min 11 sec)
Simulation finished CPU 4 instructions: 100000000 cycles: 25000000 cumulative IPC: 4 (Simulation time: 01 hr 00 min 11 sec)
Simulation finished CPU 3 instructions: 100000000 cycles: 25000000 cumulative IPC: 4 (Simulation time: 01 hr 00 min 11 sec)
Simulation finished CPU 2 instructions: 100000000 cycles: 25000000 cumulative IPC: 4 (Simulation time: 01 hr 00 min 11 sec)
*** Reached end of trace: (2, "traces/canneal_big2.champsimtrace")
*** Reached end of trace: (7, "traces/canneal_big2.champsimtrace")
*** Reached end of trace: (4, "traces/canneal_big4.champsimtrace")
*** Reached end of trace: (3, "traces/canneal_big3.champsimtrace")
Heartbeat CPU 2 instructions: 110000001 cycles: 27505209 heartbeat IPC: 4 cumulative IPC: 4 (Simulation time: 01 hr 01 min 05 sec)
Heartbeat CPU 7 instructions: 110000001 cycles: 27505215 heartbeat IPC: 4 cumulative IPC: 4 (Simulation time: 01 hr 01 min 05 sec)
Heartbeat CPU 4 instructions: 110000001 cycles: 27505240 heartbeat IPC: 4 cumulative IPC: 4 (Simulation time: 01 hr 01 min 05 sec)
Heartbeat CPU 3 instructions: 110000001 cycles: 27505262 heartbeat IPC: 4 cumulative IPC: 4 (Simulation time: 01 hr 01 min 05 sec)
*** Reached end of trace: (0, "traces/canneal_big0.champsimtrace")
Heartbeat CPU 0 instructions: 60000018 cycles: 28482461 heartbeat IPC: 2.086 cumulative IPC: 2.09 (Simulation time: 01 hr 03 min 14 sec)
*** Reached end of trace: (2, "traces/canneal_big2.champsimtrace")
*** Reached end of trace: (7, "traces/canneal_big2.champsimtrace")
*** Reached end of trace: (4, "traces/canneal_big4.champsimtrace")
*** Reached end of trace: (3, "traces/canneal_big3.champsimtrace")
*** Reached end of trace: (5, "traces/canneal_big0.champsimtrace")
Heartbeat CPU 5 instructions: 60000018 cycles: 29372074 heartbeat IPC: 2.012 cumulative IPC: 2.022 (Simulation time: 01 hr 05 min 13 sec)
*** Reached end of trace: (2, "traces/canneal_big2.champsimtrace")
*** Reached end of trace: (7, "traces/canneal_big2.champsimtrace")
*** Reached end of trace: (4, "traces/canneal_big4.champsimtrace")
*** Reached end of trace: (3, "traces/canneal_big3.champsimtrace")
Heartbeat CPU 2 instructions: 120000001 cycles: 30005209 heartbeat IPC: 4 cumulative IPC: 4 (Simulation time: 01 hr 06 min 37 sec)
Heartbeat CPU 7 instructions: 120000001 cycles: 30005215 heartbeat IPC: 4 cumulative IPC: 4 (Simulation time: 01 hr 06 min 37 sec)
Heartbeat CPU 4 instructions: 120000001 cycles: 30005240 heartbeat IPC: 4 cumulative IPC: 4 (Simulation time: 01 hr 06 min 37 sec)
Heartbeat CPU 3 instructions: 120000001 cycles: 30005262 heartbeat IPC: 4 cumulative IPC: 4 (Simulation time: 01 hr 06 min 37 sec)
*** Reached end of trace: (0, "traces/canneal_big0.champsimtrace")
*** Reached end of trace: (2, "traces/canneal_big2.champsimtrace")
*** Reached end of trace: (7, "traces/canneal_big2.champsimtrace")
*** Reached end of trace: (4, "traces/canneal_big4.champsimtrace")
*** Reached end of trace: (3, "traces/canneal_big3.champsimtrace")
*** Reached end of trace: (5, "traces/canneal_big0.champsimtrace")
*** Reached end of trace: (2, "traces/canneal_big2.champsimtrace")
*** Reached end of trace: (7, "traces/canneal_big2.champsimtrace")
*** Reached end of trace: (4, "traces/canneal_big4.champsimtrace")
*** Reached end of trace: (3, "traces/canneal_big3.champsimtrace")
Heartbeat CPU 2 instructions: 130000001 cycles: 32505209 heartbeat IPC: 4 cumulative IPC: 4 (Simulation time: 01 hr 12 min 08 sec)
Heartbeat CPU 7 instructions: 130000001 cycles: 32505215 heartbeat IPC: 4 cumulative IPC: 4 (Simulation time: 01 hr 12 min 08 sec)
Heartbeat CPU 4 instructions: 130000001 cycles: 32505240 heartbeat IPC: 4 cumulative IPC: 4 (Simulation time: 01 hr 12 min 08 sec)
Heartbeat CPU 3 instructions: 130000001 cycles: 32505262 heartbeat IPC: 4 cumulative IPC: 4 (Simulation time: 01 hr 12 min 08 sec)
*** Reached end of trace: (0, "traces/canneal_big0.champsimtrace")
Heartbeat CPU 0 instructions: 70000021 cycles: 33266047 heartbeat IPC: 2.09 cumulative IPC: 2.09 (Simulation time: 01 hr 13 min 48 sec)
*** Reached end of trace: (2, "traces/canneal_big2.champsimtrace")
*** Reached end of trace: (7, "traces/canneal_big2.champsimtrace")
*** Reached end of trace: (4, "traces/canneal_big4.champsimtrace")
*** Reached end of trace: (3, "traces/canneal_big3.champsimtrace")
*** Reached end of trace: (5, "traces/canneal_big0.champsimtrace")
Heartbeat CPU 5 instructions: 70000021 cycles: 34298610 heartbeat IPC: 2.03 cumulative IPC: 2.023 (Simulation time: 01 hr 16 min 05 sec)
*** Reached end of trace: (2, "traces/canneal_big2.champsimtrace")
*** Reached end of trace: (7, "traces/canneal_big2.champsimtrace")
*** Reached end of trace: (4, "traces/canneal_big4.champsimtrace")
*** Reached end of trace: (3, "traces/canneal_big3.champsimtrace")
Heartbeat CPU 2 instructions: 140000001 cycles: 35005209 heartbeat IPC: 4 cumulative IPC: 4 (Simulation time: 01 hr 17 min 40 sec)
Heartbeat CPU 7 instructions: 140000001 cycles: 35005215 heartbeat IPC: 4 cumulative IPC: 4 (Simulation time: 01 hr 17 min 40 sec)
Heartbeat CPU 4 instructions: 140000001 cycles: 35005240 heartbeat IPC: 4 cumulative IPC: 4 (Simulation time: 01 hr 17 min 40 sec)
Heartbeat CPU 3 instructions: 140000001 cycles: 35005262 heartbeat IPC: 4 cumulative IPC: 4 (Simulation time: 01 hr 17 min 40 sec)
*** Reached end of trace: (0, "traces/canneal_big0.champsimtrace")
*** Reached end of trace: (2, "traces/canneal_big2.champsimtrace")
*** Reached end of trace: (7, "traces/canneal_big2.champsimtrace")
*** Reached end of trace: (4, "traces/canneal_big4.champsimtrace")
*** Reached end of trace: (3, "traces/canneal_big3.champsimtrace")
*** Reached end of trace: (5, "traces/canneal_big0.champsimtrace")
*** Reached end of trace: (2, "traces/canneal_big2.champsimtrace")
*** Reached end of trace: (7, "traces/canneal_big2.champsimtrace")
*** Reached end of trace: (4, "traces/canneal_big4.champsimtrace")
*** Reached end of trace: (3, "traces/canneal_big3.champsimtrace")
Heartbeat CPU 2 instructions: 150000001 cycles: 37505209 heartbeat IPC: 4 cumulative IPC: 4 (Simulation time: 01 hr 23 min 12 sec)
Heartbeat CPU 7 instructions: 150000001 cycles: 37505215 heartbeat IPC: 4 cumulative IPC: 4 (Simulation time: 01 hr 23 min 12 sec)
Heartbeat CPU 4 instructions: 150000001 cycles: 37505240 heartbeat IPC: 4 cumulative IPC: 4 (Simulation time: 01 hr 23 min 12 sec)
Heartbeat CPU 3 instructions: 150000001 cycles: 37505262 heartbeat IPC: 4 cumulative IPC: 4 (Simulation time: 01 hr 23 min 12 sec)
*** Reached end of trace: (0, "traces/canneal_big0.champsimtrace")
Heartbeat CPU 0 instructions: 80000024 cycles: 38054833 heartbeat IPC: 2.088 cumulative IPC: 2.09 (Simulation time: 01 hr 24 min 24 sec)
*** Reached end of trace: (2, "traces/canneal_big2.champsimtrace")
*** Reached end of trace: (7, "traces/canneal_big2.champsimtrace")
*** Reached end of trace: (4, "traces/canneal_big4.champsimtrace")
*** Reached end of trace: (3, "traces/canneal_big3.champsimtrace")
*** Reached end of trace: (5, "traces/canneal_big0.champsimtrace")
Heartbeat CPU 5 instructions: 80000024 cycles: 39214679 heartbeat IPC: 2.034 cumulative IPC: 2.024 (Simulation time: 01 hr 27 min 01 sec)
*** Reached end of trace: (1, "traces/canneal_big1.champsimtrace")
Heartbeat CPU 1 instructions: 10000002 cycles: 39526209 heartbeat IPC: 0.253 cumulative IPC: 0.2404 (Simulation time: 01 hr 27 min 45 sec)
*** Reached end of trace: (6, "traces/canneal_big1.champsimtrace")
Heartbeat CPU 6 instructions: 10000002 cycles: 39659576 heartbeat IPC: 0.2521 cumulative IPC: 0.2396 (Simulation time: 01 hr 28 min 05 sec)
*** Reached end of trace: (2, "traces/canneal_big2.champsimtrace")
*** Reached end of trace: (7, "traces/canneal_big2.champsimtrace")
*** Reached end of trace: (4, "traces/canneal_big4.champsimtrace")
*** Reached end of trace: (3, "traces/canneal_big3.champsimtrace")
Heartbeat CPU 2 instructions: 160000001 cycles: 40005209 heartbeat IPC: 4 cumulative IPC: 4 (Simulation time: 01 hr 28 min 54 sec)
Heartbeat CPU 7 instructions: 160000001 cycles: 40005215 heartbeat IPC: 4 cumulative IPC: 4 (Simulation time: 01 hr 28 min 54 sec)
Heartbeat CPU 4 instructions: 160000001 cycles: 40005240 heartbeat IPC: 4 cumulative IPC: 4 (Simulation time: 01 hr 28 min 54 sec)
Heartbeat CPU 3 instructions: 160000001 cycles: 40005262 heartbeat IPC: 4 cumulative IPC: 4 (Simulation time: 01 hr 28 min 54 sec)
*** Reached end of trace: (0, "traces/canneal_big0.champsimtrace")
*** Reached end of trace: (2, "traces/canneal_big2.champsimtrace")
*** Reached end of trace: (7, "traces/canneal_big2.champsimtrace")
*** Reached end of trace: (4, "traces/canneal_big4.champsimtrace")
*** Reached end of trace: (3, "traces/canneal_big3.champsimtrace")
*** Reached end of trace: (5, "traces/canneal_big0.champsimtrace")
*** Reached end of trace: (2, "traces/canneal_big2.champsimtrace")
*** Reached end of trace: (7, "traces/canneal_big2.champsimtrace")
*** Reached end of trace: (4, "traces/canneal_big4.champsimtrace")
*** Reached end of trace: (3, "traces/canneal_big3.champsimtrace")
Heartbeat CPU 2 instructions: 170000001 cycles: 42505209 heartbeat IPC: 4 cumulative IPC: 4 (Simulation time: 01 hr 35 min 15 sec)
Heartbeat CPU 7 instructions: 170000001 cycles: 42505215 heartbeat IPC: 4 cumulative IPC: 4 (Simulation time: 01 hr 35 min 15 sec)
Heartbeat CPU 4 instructions: 170000001 cycles: 42505240 heartbeat IPC: 4 cumulative IPC: 4 (Simulation time: 01 hr 35 min 15 sec)
Heartbeat CPU 3 instructions: 170000001 cycles: 42505262 heartbeat IPC: 4 cumulative IPC: 4 (Simulation time: 01 hr 35 min 15 sec)
*** Reached end of trace: (0, "traces/canneal_big0.champsimtrace")
Heartbeat CPU 0 instructions: 90000027 cycles: 42863926 heartbeat IPC: 2.079 cumulative IPC: 2.089 (Simulation time: 01 hr 36 min 03 sec)
*** Reached end of trace: (2, "traces/canneal_big2.champsimtrace")
*** Reached end of trace: (7, "traces/canneal_big2.champsimtrace")
*** Reached end of trace: (4, "traces/canneal_big4.champsimtrace")
*** Reached end of trace: (3, "traces/canneal_big3.champsimtrace")
*** Reached end of trace: (5, "traces/canneal_big0.champsimtrace")
Heartbeat CPU 5 instructions: 90000024 cycles: 44133733 heartbeat IPC: 2.033 cumulative IPC: 2.025 (Simulation time: 01 hr 38 min 56 sec)
*** Reached end of trace: (2, "traces/canneal_big2.champsimtrace")
*** Reached end of trace: (7, "traces/canneal_big2.champsimtrace")
*** Reached end of trace: (4, "traces/canneal_big4.champsimtrace")
*** Reached end of trace: (3, "traces/canneal_big3.champsimtrace")
Heartbeat CPU 2 instructions: 180000001 cycles: 45005209 heartbeat IPC: 4 cumulative IPC: 4 (Simulation time: 01 hr 41 min 04 sec)
Heartbeat CPU 7 instructions: 180000001 cycles: 45005215 heartbeat IPC: 4 cumulative IPC: 4 (Simulation time: 01 hr 41 min 04 sec)
Heartbeat CPU 4 instructions: 180000001 cycles: 45005240 heartbeat IPC: 4 cumulative IPC: 4 (Simulation time: 01 hr 41 min 04 sec)
Heartbeat CPU 3 instructions: 180000001 cycles: 45005262 heartbeat IPC: 4 cumulative IPC: 4 (Simulation time: 01 hr 41 min 04 sec)
*** Reached end of trace: (0, "traces/canneal_big0.champsimtrace")
*** Reached end of trace: (2, "traces/canneal_big2.champsimtrace")
*** Reached end of trace: (7, "traces/canneal_big2.champsimtrace")
*** Reached end of trace: (4, "traces/canneal_big4.champsimtrace")
*** Reached end of trace: (3, "traces/canneal_big3.champsimtrace")
*** Reached end of trace: (5, "traces/canneal_big0.champsimtrace")
*** Reached end of trace: (2, "traces/canneal_big2.champsimtrace")
*** Reached end of trace: (7, "traces/canneal_big2.champsimtrace")
*** Reached end of trace: (4, "traces/canneal_big4.champsimtrace")
*** Reached end of trace: (3, "traces/canneal_big3.champsimtrace")
Heartbeat CPU 2 instructions: 190000001 cycles: 47505209 heartbeat IPC: 4 cumulative IPC: 4 (Simulation time: 01 hr 46 min 41 sec)
Heartbeat CPU 7 instructions: 190000001 cycles: 47505215 heartbeat IPC: 4 cumulative IPC: 4 (Simulation time: 01 hr 46 min 41 sec)
Heartbeat CPU 4 instructions: 190000001 cycles: 47505240 heartbeat IPC: 4 cumulative IPC: 4 (Simulation time: 01 hr 46 min 41 sec)
Heartbeat CPU 3 instructions: 190000001 cycles: 47505262 heartbeat IPC: 4 cumulative IPC: 4 (Simulation time: 01 hr 46 min 41 sec)
*** Reached end of trace: (0, "traces/canneal_big0.champsimtrace")
Heartbeat CPU 0 instructions: 100000027 cycles: 47657460 heartbeat IPC: 2.086 cumulative IPC: 2.088 (Simulation time: 01 hr 47 min 01 sec)
*** Reached end of trace: (2, "traces/canneal_big2.champsimtrace")
*** Reached end of trace: (7, "traces/canneal_big2.champsimtrace")
*** Reached end of trace: (4, "traces/canneal_big4.champsimtrace")
*** Reached end of trace: (3, "traces/canneal_big3.champsimtrace")
*** Reached end of trace: (5, "traces/canneal_big0.champsimtrace")
Heartbeat CPU 5 instructions: 100000027 cycles: 49034954 heartbeat IPC: 2.04 cumulative IPC: 2.027 (Simulation time: 01 hr 50 min 17 sec)
Simulation finished CPU 0 instructions: 100000000 cycles: 47900424 cumulative IPC: 2.088 (Simulation time: 01 hr 52 min 28 sec)
*** Reached end of trace: (2, "traces/canneal_big2.champsimtrace")
*** Reached end of trace: (7, "traces/canneal_big2.champsimtrace")
*** Reached end of trace: (4, "traces/canneal_big4.champsimtrace")
*** Reached end of trace: (3, "traces/canneal_big3.champsimtrace")
Heartbeat CPU 2 instructions: 200000001 cycles: 50005209 heartbeat IPC: 4 cumulative IPC: 4 (Simulation time: 01 hr 52 min 28 sec)
Heartbeat CPU 7 instructions: 200000001 cycles: 50005215 heartbeat IPC: 4 cumulative IPC: 4 (Simulation time: 01 hr 52 min 28 sec)
Heartbeat CPU 4 instructions: 200000001 cycles: 50005240 heartbeat IPC: 4 cumulative IPC: 4 (Simulation time: 01 hr 52 min 28 sec)
Heartbeat CPU 3 instructions: 200000001 cycles: 50005262 heartbeat IPC: 4 cumulative IPC: 4 (Simulation time: 01 hr 52 min 28 sec)
*** Reached end of trace: (0, "traces/canneal_big0.champsimtrace")
*** Reached end of trace: (2, "traces/canneal_big2.champsimtrace")
*** Reached end of trace: (7, "traces/canneal_big2.champsimtrace")
*** Reached end of trace: (4, "traces/canneal_big4.champsimtrace")
*** Reached end of trace: (3, "traces/canneal_big3.champsimtrace")
Simulation finished CPU 5 instructions: 100000000 cycles: 49332165 cumulative IPC: 2.027 (Simulation time: 01 hr 55 min 38 sec)
*** Reached end of trace: (5, "traces/canneal_big0.champsimtrace")
*** Reached end of trace: (0, "traces/canneal_big0.champsimtrace")
Heartbeat CPU 0 instructions: 110000030 cycles: 52453301 heartbeat IPC: 2.085 cumulative IPC: 2.088 (Simulation time: 01 hr 58 min 08 sec)
*** Reached end of trace: (2, "traces/canneal_big2.champsimtrace")
*** Reached end of trace: (7, "traces/canneal_big2.champsimtrace")
*** Reached end of trace: (4, "traces/canneal_big4.champsimtrace")
*** Reached end of trace: (3, "traces/canneal_big3.champsimtrace")
Heartbeat CPU 2 instructions: 210000001 cycles: 52505209 heartbeat IPC: 4 cumulative IPC: 4 (Simulation time: 01 hr 58 min 15 sec)
Heartbeat CPU 7 instructions: 210000001 cycles: 52505215 heartbeat IPC: 4 cumulative IPC: 4 (Simulation time: 01 hr 58 min 15 sec)
Heartbeat CPU 4 instructions: 210000001 cycles: 52505240 heartbeat IPC: 4 cumulative IPC: 4 (Simulation time: 01 hr 58 min 15 sec)
Heartbeat CPU 3 instructions: 210000001 cycles: 52505262 heartbeat IPC: 4 cumulative IPC: 4 (Simulation time: 01 hr 58 min 15 sec)
*** Reached end of trace: (2, "traces/canneal_big2.champsimtrace")
*** Reached end of trace: (7, "traces/canneal_big2.champsimtrace")
*** Reached end of trace: (4, "traces/canneal_big4.champsimtrace")
*** Reached end of trace: (3, "traces/canneal_big3.champsimtrace")
*** Reached end of trace: (5, "traces/canneal_big0.champsimtrace")
Heartbeat CPU 5 instructions: 110000030 cycles: 53947942 heartbeat IPC: 2.035 cumulative IPC: 2.028 (Simulation time: 02 hr 01 min 29 sec)
*** Reached end of trace: (0, "traces/canneal_big0.champsimtrace")
*** Reached end of trace: (2, "traces/canneal_big2.champsimtrace")
*** Reached end of trace: (7, "traces/canneal_big2.champsimtrace")
*** Reached end of trace: (4, "traces/canneal_big4.champsimtrace")
*** Reached end of trace: (3, "traces/canneal_big3.champsimtrace")
Heartbeat CPU 2 instructions: 220000001 cycles: 55005209 heartbeat IPC: 4 cumulative IPC: 4 (Simulation time: 02 hr 03 min 51 sec)
Heartbeat CPU 7 instructions: 220000001 cycles: 55005215 heartbeat IPC: 4 cumulative IPC: 4 (Simulation time: 02 hr 03 min 51 sec)
Heartbeat CPU 4 instructions: 220000001 cycles: 55005240 heartbeat IPC: 4 cumulative IPC: 4 (Simulation time: 02 hr 03 min 51 sec)
Heartbeat CPU 3 instructions: 220000001 cycles: 55005262 heartbeat IPC: 4 cumulative IPC: 4 (Simulation time: 02 hr 03 min 51 sec)
*** Reached end of trace: (2, "traces/canneal_big2.champsimtrace")
*** Reached end of trace: (7, "traces/canneal_big2.champsimtrace")
*** Reached end of trace: (4, "traces/canneal_big4.champsimtrace")
*** Reached end of trace: (3, "traces/canneal_big3.champsimtrace")
*** Reached end of trace: (5, "traces/canneal_big0.champsimtrace")
*** Reached end of trace: (0, "traces/canneal_big0.champsimtrace")
Heartbeat CPU 0 instructions: 120000033 cycles: 57268270 heartbeat IPC: 2.077 cumulative IPC: 2.087 (Simulation time: 02 hr 09 min 03 sec)
*** Reached end of trace: (2, "traces/canneal_big2.champsimtrace")
*** Reached end of trace: (7, "traces/canneal_big2.champsimtrace")
*** Reached end of trace: (4, "traces/canneal_big4.champsimtrace")
*** Reached end of trace: (3, "traces/canneal_big3.champsimtrace")
Heartbeat CPU 2 instructions: 230000001 cycles: 57505209 heartbeat IPC: 4 cumulative IPC: 4 (Simulation time: 02 hr 09 min 34 sec)
Heartbeat CPU 7 instructions: 230000001 cycles: 57505215 heartbeat IPC: 4 cumulative IPC: 4 (Simulation time: 02 hr 09 min 34 sec)
Heartbeat CPU 4 instructions: 230000001 cycles: 57505240 heartbeat IPC: 4 cumulative IPC: 4 (Simulation time: 02 hr 09 min 34 sec)
Heartbeat CPU 3 instructions: 230000001 cycles: 57505262 heartbeat IPC: 4 cumulative IPC: 4 (Simulation time: 02 hr 09 min 34 sec)
*** Reached end of trace: (2, "traces/canneal_big2.champsimtrace")
*** Reached end of trace: (7, "traces/canneal_big2.champsimtrace")
*** Reached end of trace: (4, "traces/canneal_big4.champsimtrace")
*** Reached end of trace: (3, "traces/canneal_big3.champsimtrace")
*** Reached end of trace: (5, "traces/canneal_big0.champsimtrace")
Heartbeat CPU 5 instructions: 120000031 cycles: 58856229 heartbeat IPC: 2.037 cumulative IPC: 2.029 (Simulation time: 02 hr 12 min 42 sec)
*** Reached end of trace: (0, "traces/canneal_big0.champsimtrace")
*** Reached end of trace: (2, "traces/canneal_big2.champsimtrace")
*** Reached end of trace: (7, "traces/canneal_big2.champsimtrace")
*** Reached end of trace: (4, "traces/canneal_big4.champsimtrace")
*** Reached end of trace: (3, "traces/canneal_big3.champsimtrace")
Heartbeat CPU 2 instructions: 240000001 cycles: 60005209 heartbeat IPC: 4 cumulative IPC: 4 (Simulation time: 02 hr 15 min 21 sec)
Heartbeat CPU 7 instructions: 240000001 cycles: 60005215 heartbeat IPC: 4 cumulative IPC: 4 (Simulation time: 02 hr 15 min 21 sec)
Heartbeat CPU 4 instructions: 240000001 cycles: 60005240 heartbeat IPC: 4 cumulative IPC: 4 (Simulation time: 02 hr 15 min 21 sec)
Heartbeat CPU 3 instructions: 240000001 cycles: 60005262 heartbeat IPC: 4 cumulative IPC: 4 (Simulation time: 02 hr 15 min 21 sec)
*** Reached end of trace: (1, "traces/canneal_big1.champsimtrace")
*** Reached end of trace: (6, "traces/canneal_big1.champsimtrace")
*** Reached end of trace: (2, "traces/canneal_big2.champsimtrace")
*** Reached end of trace: (7, "traces/canneal_big2.champsimtrace")
*** Reached end of trace: (4, "traces/canneal_big4.champsimtrace")
*** Reached end of trace: (3, "traces/canneal_big3.champsimtrace")
*** Reached end of trace: (5, "traces/canneal_big0.champsimtrace")
*** Reached end of trace: (0, "traces/canneal_big0.champsimtrace")
Heartbeat CPU 0 instructions: 130000034 cycles: 62103774 heartbeat IPC: 2.068 cumulative IPC: 2.085 (Simulation time: 02 hr 20 min 20 sec)
*** Reached end of trace: (2, "traces/canneal_big2.champsimtrace")
*** Reached end of trace: (7, "traces/canneal_big2.champsimtrace")
*** Reached end of trace: (4, "traces/canneal_big4.champsimtrace")
*** Reached end of trace: (3, "traces/canneal_big3.champsimtrace")
Heartbeat CPU 2 instructions: 250000001 cycles: 62505209 heartbeat IPC: 4 cumulative IPC: 4 (Simulation time: 02 hr 21 min 16 sec)
Heartbeat CPU 7 instructions: 250000001 cycles: 62505215 heartbeat IPC: 4 cumulative IPC: 4 (Simulation time: 02 hr 21 min 16 sec)
Heartbeat CPU 4 instructions: 250000001 cycles: 62505240 heartbeat IPC: 4 cumulative IPC: 4 (Simulation time: 02 hr 21 min 16 sec)
Heartbeat CPU 3 instructions: 250000001 cycles: 62505262 heartbeat IPC: 4 cumulative IPC: 4 (Simulation time: 02 hr 21 min 16 sec)
*** Reached end of trace: (2, "traces/canneal_big2.champsimtrace")
*** Reached end of trace: (7, "traces/canneal_big2.champsimtrace")
*** Reached end of trace: (4, "traces/canneal_big4.champsimtrace")
*** Reached end of trace: (3, "traces/canneal_big3.champsimtrace")
*** Reached end of trace: (5, "traces/canneal_big0.champsimtrace")
Heartbeat CPU 5 instructions: 130000031 cycles: 63776343 heartbeat IPC: 2.032 cumulative IPC: 2.029 (Simulation time: 02 hr 24 min 17 sec)
*** Reached end of trace: (0, "traces/canneal_big0.champsimtrace")
*** Reached end of trace: (2, "traces/canneal_big2.champsimtrace")
*** Reached end of trace: (7, "traces/canneal_big2.champsimtrace")
*** Reached end of trace: (4, "traces/canneal_big4.champsimtrace")
*** Reached end of trace: (3, "traces/canneal_big3.champsimtrace")
Heartbeat CPU 2 instructions: 260000001 cycles: 65005209 heartbeat IPC: 4 cumulative IPC: 4 (Simulation time: 02 hr 27 min 04 sec)
Heartbeat CPU 7 instructions: 260000001 cycles: 65005215 heartbeat IPC: 4 cumulative IPC: 4 (Simulation time: 02 hr 27 min 04 sec)
Heartbeat CPU 4 instructions: 260000001 cycles: 65005240 heartbeat IPC: 4 cumulative IPC: 4 (Simulation time: 02 hr 27 min 04 sec)
Heartbeat CPU 3 instructions: 260000001 cycles: 65005262 heartbeat IPC: 4 cumulative IPC: 4 (Simulation time: 02 hr 27 min 04 sec)
*** Reached end of trace: (5, "traces/canneal_big0.champsimtrace")
*** Reached end of trace: (2, "traces/canneal_big2.champsimtrace")
*** Reached end of trace: (7, "traces/canneal_big2.champsimtrace")
*** Reached end of trace: (4, "traces/canneal_big4.champsimtrace")
*** Reached end of trace: (3, "traces/canneal_big3.champsimtrace")
*** Reached end of trace: (0, "traces/canneal_big0.champsimtrace")
Heartbeat CPU 0 instructions: 140000034 cycles: 66945413 heartbeat IPC: 2.065 cumulative IPC: 2.084 (Simulation time: 02 hr 31 min 30 sec)
*** Reached end of trace: (2, "traces/canneal_big2.champsimtrace")
*** Reached end of trace: (7, "traces/canneal_big2.champsimtrace")
*** Reached end of trace: (4, "traces/canneal_big4.champsimtrace")
*** Reached end of trace: (3, "traces/canneal_big3.champsimtrace")
Heartbeat CPU 2 instructions: 270000001 cycles: 67505209 heartbeat IPC: 4 cumulative IPC: 4 (Simulation time: 02 hr 32 min 46 sec)
Heartbeat CPU 7 instructions: 270000001 cycles: 67505215 heartbeat IPC: 4 cumulative IPC: 4 (Simulation time: 02 hr 32 min 46 sec)
Heartbeat CPU 4 instructions: 270000001 cycles: 67505240 heartbeat IPC: 4 cumulative IPC: 4 (Simulation time: 02 hr 32 min 46 sec)
Heartbeat CPU 3 instructions: 270000001 cycles: 67505262 heartbeat IPC: 4 cumulative IPC: 4 (Simulation time: 02 hr 32 min 46 sec)
*** Reached end of trace: (5, "traces/canneal_big0.champsimtrace")
Heartbeat CPU 5 instructions: 140000034 cycles: 68685007 heartbeat IPC: 2.037 cumulative IPC: 2.029 (Simulation time: 02 hr 35 min 28 sec)
*** Reached end of trace: (2, "traces/canneal_big2.champsimtrace")
*** Reached end of trace: (7, "traces/canneal_big2.champsimtrace")
*** Reached end of trace: (4, "traces/canneal_big4.champsimtrace")
*** Reached end of trace: (3, "traces/canneal_big3.champsimtrace")
*** Reached end of trace: (0, "traces/canneal_big0.champsimtrace")
*** Reached end of trace: (2, "traces/canneal_big2.champsimtrace")
*** Reached end of trace: (7, "traces/canneal_big2.champsimtrace")
*** Reached end of trace: (4, "traces/canneal_big4.champsimtrace")
*** Reached end of trace: (3, "traces/canneal_big3.champsimtrace")
Heartbeat CPU 2 instructions: 280000001 cycles: 70005209 heartbeat IPC: 4 cumulative IPC: 4 (Simulation time: 02 hr 38 min 31 sec)
Heartbeat CPU 7 instructions: 280000001 cycles: 70005215 heartbeat IPC: 4 cumulative IPC: 4 (Simulation time: 02 hr 38 min 31 sec)
Heartbeat CPU 4 instructions: 280000001 cycles: 70005240 heartbeat IPC: 4 cumulative IPC: 4 (Simulation time: 02 hr 38 min 31 sec)
Heartbeat CPU 3 instructions: 280000001 cycles: 70005262 heartbeat IPC: 4 cumulative IPC: 4 (Simulation time: 02 hr 38 min 31 sec)
*** Reached end of trace: (5, "traces/canneal_big0.champsimtrace")
*** Reached end of trace: (2, "traces/canneal_big2.champsimtrace")
*** Reached end of trace: (7, "traces/canneal_big2.champsimtrace")
*** Reached end of trace: (4, "traces/canneal_big4.champsimtrace")
*** Reached end of trace: (3, "traces/canneal_big3.champsimtrace")
*** Reached end of trace: (0, "traces/canneal_big0.champsimtrace")
Heartbeat CPU 0 instructions: 150000035 cycles: 71796873 heartbeat IPC: 2.061 cumulative IPC: 2.082 (Simulation time: 02 hr 42 min 38 sec)
*** Reached end of trace: (2, "traces/canneal_big2.champsimtrace")
*** Reached end of trace: (7, "traces/canneal_big2.champsimtrace")
*** Reached end of trace: (4, "traces/canneal_big4.champsimtrace")
*** Reached end of trace: (3, "traces/canneal_big3.champsimtrace")
Heartbeat CPU 2 instructions: 290000001 cycles: 72505209 heartbeat IPC: 4 cumulative IPC: 4 (Simulation time: 02 hr 44 min 14 sec)
Heartbeat CPU 7 instructions: 290000001 cycles: 72505215 heartbeat IPC: 4 cumulative IPC: 4 (Simulation time: 02 hr 44 min 14 sec)
Heartbeat CPU 4 instructions: 290000001 cycles: 72505240 heartbeat IPC: 4 cumulative IPC: 4 (Simulation time: 02 hr 44 min 14 sec)
Heartbeat CPU 3 instructions: 290000001 cycles: 72505262 heartbeat IPC: 4 cumulative IPC: 4 (Simulation time: 02 hr 44 min 14 sec)
*** Reached end of trace: (5, "traces/canneal_big0.champsimtrace")
Heartbeat CPU 5 instructions: 150000035 cycles: 73564396 heartbeat IPC: 2.049 cumulative IPC: 2.031 (Simulation time: 02 hr 46 min 39 sec)
*** Reached end of trace: (2, "traces/canneal_big2.champsimtrace")
*** Reached end of trace: (7, "traces/canneal_big2.champsimtrace")
*** Reached end of trace: (4, "traces/canneal_big4.champsimtrace")
*** Reached end of trace: (3, "traces/canneal_big3.champsimtrace")
*** Reached end of trace: (0, "traces/canneal_big0.champsimtrace")
*** Reached end of trace: (2, "traces/canneal_big2.champsimtrace")
*** Reached end of trace: (7, "traces/canneal_big2.champsimtrace")
*** Reached end of trace: (4, "traces/canneal_big4.champsimtrace")
*** Reached end of trace: (3, "traces/canneal_big3.champsimtrace")
Heartbeat CPU 2 instructions: 300000001 cycles: 75005209 heartbeat IPC: 4 cumulative IPC: 4 (Simulation time: 02 hr 49 min 58 sec)
Heartbeat CPU 7 instructions: 300000001 cycles: 75005215 heartbeat IPC: 4 cumulative IPC: 4 (Simulation time: 02 hr 49 min 58 sec)
Heartbeat CPU 4 instructions: 300000001 cycles: 75005240 heartbeat IPC: 4 cumulative IPC: 4 (Simulation time: 02 hr 49 min 58 sec)
Heartbeat CPU 3 instructions: 300000001 cycles: 75005262 heartbeat IPC: 4 cumulative IPC: 4 (Simulation time: 02 hr 49 min 58 sec)
*** Reached end of trace: (5, "traces/canneal_big0.champsimtrace")
*** Reached end of trace: (2, "traces/canneal_big2.champsimtrace")
*** Reached end of trace: (7, "traces/canneal_big2.champsimtrace")
*** Reached end of trace: (4, "traces/canneal_big4.champsimtrace")
*** Reached end of trace: (3, "traces/canneal_big3.champsimtrace")
*** Reached end of trace: (0, "traces/canneal_big0.champsimtrace")
Heartbeat CPU 0 instructions: 160000035 cycles: 76641599 heartbeat IPC: 2.064 cumulative IPC: 2.081 (Simulation time: 02 hr 53 min 44 sec)
*** Reached end of trace: (2, "traces/canneal_big2.champsimtrace")
*** Reached end of trace: (7, "traces/canneal_big2.champsimtrace")
*** Reached end of trace: (4, "traces/canneal_big4.champsimtrace")
*** Reached end of trace: (3, "traces/canneal_big3.champsimtrace")
Heartbeat CPU 2 instructions: 310000001 cycles: 77505209 heartbeat IPC: 4 cumulative IPC: 4 (Simulation time: 02 hr 55 min 42 sec)
Heartbeat CPU 7 instructions: 310000001 cycles: 77505215 heartbeat IPC: 4 cumulative IPC: 4 (Simulation time: 02 hr 55 min 42 sec)
Heartbeat CPU 4 instructions: 310000001 cycles: 77505240 heartbeat IPC: 4 cumulative IPC: 4 (Simulation time: 02 hr 55 min 42 sec)
Heartbeat CPU 3 instructions: 310000001 cycles: 77505262 heartbeat IPC: 4 cumulative IPC: 4 (Simulation time: 02 hr 55 min 42 sec)
*** Reached end of trace: (5, "traces/canneal_big0.champsimtrace")
Heartbeat CPU 5 instructions: 160000038 cycles: 78440715 heartbeat IPC: 2.051 cumulative IPC: 2.032 (Simulation time: 02 hr 57 min 50 sec)
*** Reached end of trace: (2, "traces/canneal_big2.champsimtrace")
*** Reached end of trace: (7, "traces/canneal_big2.champsimtrace")
*** Reached end of trace: (4, "traces/canneal_big4.champsimtrace")
*** Reached end of trace: (3, "traces/canneal_big3.champsimtrace")
*** Reached end of trace: (0, "traces/canneal_big0.champsimtrace")
*** Reached end of trace: (2, "traces/canneal_big2.champsimtrace")
*** Reached end of trace: (7, "traces/canneal_big2.champsimtrace")
*** Reached end of trace: (4, "traces/canneal_big4.champsimtrace")
*** Reached end of trace: (3, "traces/canneal_big3.champsimtrace")
Heartbeat CPU 2 instructions: 320000001 cycles: 80005209 heartbeat IPC: 4 cumulative IPC: 4 (Simulation time: 03 hr 01 min 18 sec)
Heartbeat CPU 7 instructions: 320000001 cycles: 80005215 heartbeat IPC: 4 cumulative IPC: 4 (Simulation time: 03 hr 01 min 18 sec)
Heartbeat CPU 4 instructions: 320000001 cycles: 80005240 heartbeat IPC: 4 cumulative IPC: 4 (Simulation time: 03 hr 01 min 18 sec)
Heartbeat CPU 3 instructions: 320000001 cycles: 80005262 heartbeat IPC: 4 cumulative IPC: 4 (Simulation time: 03 hr 01 min 18 sec)
*** Reached end of trace: (1, "traces/canneal_big1.champsimtrace")
Heartbeat CPU 1 instructions: 20000004 cycles: 80841902 heartbeat IPC: 0.242 cumulative IPC: 0.2412 (Simulation time: 03 hr 03 min 11 sec)
*** Reached end of trace: (5, "traces/canneal_big0.champsimtrace")
*** Reached end of trace: (6, "traces/canneal_big1.champsimtrace")
Heartbeat CPU 6 instructions: 20000004 cycles: 81206742 heartbeat IPC: 0.2407 cumulative IPC: 0.2402 (Simulation time: 03 hr 04 min 00 sec)
*** Reached end of trace: (2, "traces/canneal_big2.champsimtrace")
*** Reached end of trace: (7, "traces/canneal_big2.champsimtrace")
*** Reached end of trace: (4, "traces/canneal_big4.champsimtrace")
*** Reached end of trace: (3, "traces/canneal_big3.champsimtrace")
*** Reached end of trace: (0, "traces/canneal_big0.champsimtrace")
Heartbeat CPU 0 instructions: 170000038 cycles: 81483018 heartbeat IPC: 2.066 cumulative IPC: 2.08 (Simulation time: 03 hr 04 min 37 sec)
*** Reached end of trace: (2, "traces/canneal_big2.champsimtrace")
*** Reached end of trace: (7, "traces/canneal_big2.champsimtrace")
*** Reached end of trace: (4, "traces/canneal_big4.champsimtrace")
*** Reached end of trace: (3, "traces/canneal_big3.champsimtrace")
Heartbeat CPU 2 instructions: 330000001 cycles: 82505209 heartbeat IPC: 4 cumulative IPC: 4 (Simulation time: 03 hr 06 min 52 sec)
Heartbeat CPU 7 instructions: 330000001 cycles: 82505215 heartbeat IPC: 4 cumulative IPC: 4 (Simulation time: 03 hr 06 min 52 sec)
Heartbeat CPU 4 instructions: 330000001 cycles: 82505240 heartbeat IPC: 4 cumulative IPC: 4 (Simulation time: 03 hr 06 min 52 sec)
Heartbeat CPU 3 instructions: 330000001 cycles: 82505262 heartbeat IPC: 4 cumulative IPC: 4 (Simulation time: 03 hr 06 min 52 sec)
*** Reached end of trace: (5, "traces/canneal_big0.champsimtrace")
Heartbeat CPU 5 instructions: 170000041 cycles: 83325293 heartbeat IPC: 2.047 cumulative IPC: 2.033 (Simulation time: 03 hr 08 min 43 sec)
*** Reached end of trace: (2, "traces/canneal_big2.champsimtrace")
*** Reached end of trace: (7, "traces/canneal_big2.champsimtrace")
*** Reached end of trace: (4, "traces/canneal_big4.champsimtrace")
*** Reached end of trace: (3, "traces/canneal_big3.champsimtrace")
*** Reached end of trace: (0, "traces/canneal_big0.champsimtrace")
*** Reached end of trace: (2, "traces/canneal_big2.champsimtrace")
*** Reached end of trace: (7, "traces/canneal_big2.champsimtrace")
*** Reached end of trace: (4, "traces/canneal_big4.champsimtrace")
*** Reached end of trace: (3, "traces/canneal_big3.champsimtrace")
Heartbeat CPU 2 instructions: 340000001 cycles: 85005209 heartbeat IPC: 4 cumulative IPC: 4 (Simulation time: 03 hr 12 min 26 sec)
Heartbeat CPU 7 instructions: 340000001 cycles: 85005215 heartbeat IPC: 4 cumulative IPC: 4 (Simulation time: 03 hr 12 min 26 sec)
Heartbeat CPU 4 instructions: 340000001 cycles: 85005240 heartbeat IPC: 4 cumulative IPC: 4 (Simulation time: 03 hr 12 min 26 sec)
Heartbeat CPU 3 instructions: 340000001 cycles: 85005262 heartbeat IPC: 4 cumulative IPC: 4 (Simulation time: 03 hr 12 min 26 sec)
*** Reached end of trace: (5, "traces/canneal_big0.champsimtrace")
*** Reached end of trace: (2, "traces/canneal_big2.champsimtrace")
*** Reached end of trace: (7, "traces/canneal_big2.champsimtrace")
*** Reached end of trace: (4, "traces/canneal_big4.champsimtrace")
*** Reached end of trace: (3, "traces/canneal_big3.champsimtrace")
*** Reached end of trace: (0, "traces/canneal_big0.champsimtrace")
Heartbeat CPU 0 instructions: 180000039 cycles: 86348022 heartbeat IPC: 2.055 cumulative IPC: 2.079 (Simulation time: 03 hr 15 min 28 sec)
*** Reached end of trace: (2, "traces/canneal_big2.champsimtrace")
*** Reached end of trace: (7, "traces/canneal_big2.champsimtrace")
*** Reached end of trace: (4, "traces/canneal_big4.champsimtrace")
*** Reached end of trace: (3, "traces/canneal_big3.champsimtrace")
Heartbeat CPU 2 instructions: 350000001 cycles: 87505209 heartbeat IPC: 4 cumulative IPC: 4 (Simulation time: 03 hr 17 min 59 sec)
Heartbeat CPU 7 instructions: 350000001 cycles: 87505215 heartbeat IPC: 4 cumulative IPC: 4 (Simulation time: 03 hr 17 min 59 sec)
Heartbeat CPU 4 instructions: 350000001 cycles: 87505240 heartbeat IPC: 4 cumulative IPC: 4 (Simulation time: 03 hr 17 min 59 sec)
Heartbeat CPU 3 instructions: 350000001 cycles: 87505262 heartbeat IPC: 4 cumulative IPC: 4 (Simulation time: 03 hr 17 min 59 sec)
*** Reached end of trace: (5, "traces/canneal_big0.champsimtrace")
Heartbeat CPU 5 instructions: 180000041 cycles: 88208177 heartbeat IPC: 2.048 cumulative IPC: 2.034 (Simulation time: 03 hr 19 min 34 sec)
*** Reached end of trace: (2, "traces/canneal_big2.champsimtrace")
*** Reached end of trace: (7, "traces/canneal_big2.champsimtrace")
*** Reached end of trace: (4, "traces/canneal_big4.champsimtrace")
*** Reached end of trace: (3, "traces/canneal_big3.champsimtrace")
*** Reached end of trace: (0, "traces/canneal_big0.champsimtrace")
*** Reached end of trace: (2, "traces/canneal_big2.champsimtrace")
*** Reached end of trace: (7, "traces/canneal_big2.champsimtrace")
*** Reached end of trace: (4, "traces/canneal_big4.champsimtrace")
*** Reached end of trace: (3, "traces/canneal_big3.champsimtrace")
Heartbeat CPU 2 instructions: 360000001 cycles: 90005209 heartbeat IPC: 4 cumulative IPC: 4 (Simulation time: 03 hr 23 min 33 sec)
Heartbeat CPU 7 instructions: 360000001 cycles: 90005215 heartbeat IPC: 4 cumulative IPC: 4 (Simulation time: 03 hr 23 min 33 sec)
Heartbeat CPU 4 instructions: 360000001 cycles: 90005240 heartbeat IPC: 4 cumulative IPC: 4 (Simulation time: 03 hr 23 min 33 sec)
Heartbeat CPU 3 instructions: 360000001 cycles: 90005262 heartbeat IPC: 4 cumulative IPC: 4 (Simulation time: 03 hr 23 min 33 sec)
*** Reached end of trace: (5, "traces/canneal_big0.champsimtrace")
*** Reached end of trace: (0, "traces/canneal_big0.champsimtrace")
Heartbeat CPU 0 instructions: 190000042 cycles: 91211871 heartbeat IPC: 2.056 cumulative IPC: 2.078 (Simulation time: 03 hr 26 min 15 sec)
*** Reached end of trace: (2, "traces/canneal_big2.champsimtrace")
*** Reached end of trace: (7, "traces/canneal_big2.champsimtrace")
*** Reached end of trace: (4, "traces/canneal_big4.champsimtrace")
*** Reached end of trace: (3, "traces/canneal_big3.champsimtrace")
*** Reached end of trace: (2, "traces/canneal_big2.champsimtrace")
*** Reached end of trace: (7, "traces/canneal_big2.champsimtrace")
*** Reached end of trace: (4, "traces/canneal_big4.champsimtrace")
*** Reached end of trace: (3, "traces/canneal_big3.champsimtrace")
Heartbeat CPU 2 instructions: 370000001 cycles: 92505209 heartbeat IPC: 4 cumulative IPC: 4 (Simulation time: 03 hr 29 min 05 sec)
Heartbeat CPU 7 instructions: 370000001 cycles: 92505215 heartbeat IPC: 4 cumulative IPC: 4 (Simulation time: 03 hr 29 min 05 sec)
Heartbeat CPU 4 instructions: 370000001 cycles: 92505240 heartbeat IPC: 4 cumulative IPC: 4 (Simulation time: 03 hr 29 min 05 sec)
Heartbeat CPU 3 instructions: 370000001 cycles: 92505262 heartbeat IPC: 4 cumulative IPC: 4 (Simulation time: 03 hr 29 min 05 sec)
*** Reached end of trace: (5, "traces/canneal_big0.champsimtrace")
Heartbeat CPU 5 instructions: 190000044 cycles: 93082208 heartbeat IPC: 2.052 cumulative IPC: 2.035 (Simulation time: 03 hr 30 min 23 sec)
*** Reached end of trace: (0, "traces/canneal_big0.champsimtrace")
*** Reached end of trace: (2, "traces/canneal_big2.champsimtrace")
*** Reached end of trace: (7, "traces/canneal_big2.champsimtrace")
*** Reached end of trace: (4, "traces/canneal_big4.champsimtrace")
*** Reached end of trace: (3, "traces/canneal_big3.champsimtrace")
*** Reached end of trace: (2, "traces/canneal_big2.champsimtrace")
*** Reached end of trace: (7, "traces/canneal_big2.champsimtrace")
*** Reached end of trace: (4, "traces/canneal_big4.champsimtrace")
*** Reached end of trace: (3, "traces/canneal_big3.champsimtrace")
Heartbeat CPU 2 instructions: 380000001 cycles: 95005209 heartbeat IPC: 4 cumulative IPC: 4 (Simulation time: 03 hr 34 min 43 sec)
Heartbeat CPU 7 instructions: 380000001 cycles: 95005215 heartbeat IPC: 4 cumulative IPC: 4 (Simulation time: 03 hr 34 min 43 sec)
Heartbeat CPU 4 instructions: 380000001 cycles: 95005240 heartbeat IPC: 4 cumulative IPC: 4 (Simulation time: 03 hr 34 min 43 sec)
Heartbeat CPU 3 instructions: 380000001 cycles: 95005262 heartbeat IPC: 4 cumulative IPC: 4 (Simulation time: 03 hr 34 min 43 sec)
*** Reached end of trace: (5, "traces/canneal_big0.champsimtrace")
*** Reached end of trace: (0, "traces/canneal_big0.champsimtrace")
Heartbeat CPU 0 instructions: 200000045 cycles: 96058519 heartbeat IPC: 2.063 cumulative IPC: 2.077 (Simulation time: 03 hr 37 min 07 sec)
*** Reached end of trace: (2, "traces/canneal_big2.champsimtrace")
*** Reached end of trace: (7, "traces/canneal_big2.champsimtrace")
*** Reached end of trace: (4, "traces/canneal_big4.champsimtrace")
*** Reached end of trace: (3, "traces/canneal_big3.champsimtrace")
*** Reached end of trace: (2, "traces/canneal_big2.champsimtrace")
*** Reached end of trace: (7, "traces/canneal_big2.champsimtrace")
*** Reached end of trace: (4, "traces/canneal_big4.champsimtrace")
*** Reached end of trace: (3, "traces/canneal_big3.champsimtrace")
Heartbeat CPU 2 instructions: 390000001 cycles: 97505209 heartbeat IPC: 4 cumulative IPC: 4 (Simulation time: 03 hr 40 min 20 sec)
Heartbeat CPU 7 instructions: 390000001 cycles: 97505215 heartbeat IPC: 4 cumulative IPC: 4 (Simulation time: 03 hr 40 min 20 sec)
Heartbeat CPU 4 instructions: 390000001 cycles: 97505240 heartbeat IPC: 4 cumulative IPC: 4 (Simulation time: 03 hr 40 min 20 sec)
Heartbeat CPU 3 instructions: 390000001 cycles: 97505262 heartbeat IPC: 4 cumulative IPC: 4 (Simulation time: 03 hr 40 min 20 sec)
*** Reached end of trace: (5, "traces/canneal_big0.champsimtrace")
Heartbeat CPU 5 instructions: 200000047 cycles: 97964719 heartbeat IPC: 2.048 cumulative IPC: 2.035 (Simulation time: 03 hr 41 min 22 sec)
*** Reached end of trace: (0, "traces/canneal_big0.champsimtrace")
*** Reached end of trace: (2, "traces/canneal_big2.champsimtrace")
*** Reached end of trace: (7, "traces/canneal_big2.champsimtrace")
*** Reached end of trace: (4, "traces/canneal_big4.champsimtrace")
*** Reached end of trace: (3, "traces/canneal_big3.champsimtrace")
*** Reached end of trace: (2, "traces/canneal_big2.champsimtrace")
*** Reached end of trace: (7, "traces/canneal_big2.champsimtrace")
*** Reached end of trace: (4, "traces/canneal_big4.champsimtrace")
*** Reached end of trace: (3, "traces/canneal_big3.champsimtrace")
Heartbeat CPU 2 instructions: 400000001 cycles: 100005209 heartbeat IPC: 4 cumulative IPC: 4 (Simulation time: 03 hr 45 min 55 sec)
Heartbeat CPU 7 instructions: 400000001 cycles: 100005215 heartbeat IPC: 4 cumulative IPC: 4 (Simulation time: 03 hr 45 min 55 sec)
Heartbeat CPU 4 instructions: 400000001 cycles: 100005240 heartbeat IPC: 4 cumulative IPC: 4 (Simulation time: 03 hr 45 min 55 sec)
Heartbeat CPU 3 instructions: 400000001 cycles: 100005262 heartbeat IPC: 4 cumulative IPC: 4 (Simulation time: 03 hr 45 min 55 sec)
*** Reached end of trace: (5, "traces/canneal_big0.champsimtrace")
*** Reached end of trace: (0, "traces/canneal_big0.champsimtrace")
Heartbeat CPU 0 instructions: 210000048 cycles: 100895408 heartbeat IPC: 2.067 cumulative IPC: 2.076 (Simulation time: 03 hr 47 min 55 sec)
*** Reached end of trace: (2, "traces/canneal_big2.champsimtrace")
*** Reached end of trace: (7, "traces/canneal_big2.champsimtrace")
*** Reached end of trace: (4, "traces/canneal_big4.champsimtrace")
*** Reached end of trace: (3, "traces/canneal_big3.champsimtrace")
*** Reached end of trace: (1, "traces/canneal_big1.champsimtrace")
*** Reached end of trace: (6, "traces/canneal_big1.champsimtrace")
*** Reached end of trace: (2, "traces/canneal_big2.champsimtrace")
*** Reached end of trace: (7, "traces/canneal_big2.champsimtrace")
*** Reached end of trace: (4, "traces/canneal_big4.champsimtrace")
*** Reached end of trace: (3, "traces/canneal_big3.champsimtrace")
Heartbeat CPU 2 instructions: 410000001 cycles: 102505209 heartbeat IPC: 4 cumulative IPC: 4 (Simulation time: 03 hr 51 min 31 sec)
Heartbeat CPU 7 instructions: 410000001 cycles: 102505215 heartbeat IPC: 4 cumulative IPC: 4 (Simulation time: 03 hr 51 min 31 sec)
Heartbeat CPU 4 instructions: 410000001 cycles: 102505240 heartbeat IPC: 4 cumulative IPC: 4 (Simulation time: 03 hr 51 min 31 sec)
Heartbeat CPU 3 instructions: 410000001 cycles: 102505262 heartbeat IPC: 4 cumulative IPC: 4 (Simulation time: 03 hr 51 min 31 sec)
*** Reached end of trace: (5, "traces/canneal_big0.champsimtrace")
Heartbeat CPU 5 instructions: 210000048 cycles: 102825764 heartbeat IPC: 2.057 cumulative IPC: 2.037 (Simulation time: 03 hr 52 min 14 sec)
*** Reached end of trace: (0, "traces/canneal_big0.champsimtrace")
*** Reached end of trace: (2, "traces/canneal_big2.champsimtrace")
*** Reached end of trace: (7, "traces/canneal_big2.champsimtrace")
*** Reached end of trace: (4, "traces/canneal_big4.champsimtrace")
*** Reached end of trace: (3, "traces/canneal_big3.champsimtrace")
*** Reached end of trace: (2, "traces/canneal_big2.champsimtrace")
*** Reached end of trace: (7, "traces/canneal_big2.champsimtrace")
*** Reached end of trace: (4, "traces/canneal_big4.champsimtrace")
*** Reached end of trace: (3, "traces/canneal_big3.champsimtrace")
Heartbeat CPU 2 instructions: 420000001 cycles: 105005209 heartbeat IPC: 4 cumulative IPC: 4 (Simulation time: 03 hr 57 min 07 sec)
Heartbeat CPU 7 instructions: 420000001 cycles: 105005215 heartbeat IPC: 4 cumulative IPC: 4 (Simulation time: 03 hr 57 min 07 sec)
Heartbeat CPU 4 instructions: 420000001 cycles: 105005240 heartbeat IPC: 4 cumulative IPC: 4 (Simulation time: 03 hr 57 min 07 sec)
Heartbeat CPU 3 instructions: 420000001 cycles: 105005262 heartbeat IPC: 4 cumulative IPC: 4 (Simulation time: 03 hr 57 min 07 sec)
*** Reached end of trace: (5, "traces/canneal_big0.champsimtrace")
*** Reached end of trace: (0, "traces/canneal_big0.champsimtrace")
Heartbeat CPU 0 instructions: 220000051 cycles: 105745406 heartbeat IPC: 2.062 cumulative IPC: 2.076 (Simulation time: 03 hr 58 min 47 sec)
*** Reached end of trace: (2, "traces/canneal_big2.champsimtrace")
*** Reached end of trace: (7, "traces/canneal_big2.champsimtrace")
*** Reached end of trace: (4, "traces/canneal_big4.champsimtrace")
*** Reached end of trace: (3, "traces/canneal_big3.champsimtrace")
*** Reached end of trace: (2, "traces/canneal_big2.champsimtrace")
*** Reached end of trace: (7, "traces/canneal_big2.champsimtrace")
*** Reached end of trace: (4, "traces/canneal_big4.champsimtrace")
*** Reached end of trace: (3, "traces/canneal_big3.champsimtrace")
Heartbeat CPU 2 instructions: 430000001 cycles: 107505209 heartbeat IPC: 4 cumulative IPC: 4 (Simulation time: 04 hr 02 min 43 sec)
Heartbeat CPU 7 instructions: 430000001 cycles: 107505215 heartbeat IPC: 4 cumulative IPC: 4 (Simulation time: 04 hr 02 min 43 sec)
Heartbeat CPU 4 instructions: 430000001 cycles: 107505240 heartbeat IPC: 4 cumulative IPC: 4 (Simulation time: 04 hr 02 min 43 sec)
Heartbeat CPU 3 instructions: 430000001 cycles: 107505262 heartbeat IPC: 4 cumulative IPC: 4 (Simulation time: 04 hr 02 min 43 sec)
*** Reached end of trace: (5, "traces/canneal_big0.champsimtrace")
Heartbeat CPU 5 instructions: 220000048 cycles: 107706105 heartbeat IPC: 2.049 cumulative IPC: 2.037 (Simulation time: 04 hr 03 min 10 sec)
*** Reached end of trace: (0, "traces/canneal_big0.champsimtrace")
*** Reached end of trace: (2, "traces/canneal_big2.champsimtrace")
*** Reached end of trace: (7, "traces/canneal_big2.champsimtrace")
*** Reached end of trace: (4, "traces/canneal_big4.champsimtrace")
*** Reached end of trace: (3, "traces/canneal_big3.champsimtrace")
*** Reached end of trace: (2, "traces/canneal_big2.champsimtrace")
*** Reached end of trace: (7, "traces/canneal_big2.champsimtrace")
*** Reached end of trace: (4, "traces/canneal_big4.champsimtrace")
*** Reached end of trace: (3, "traces/canneal_big3.champsimtrace")
Heartbeat CPU 2 instructions: 440000001 cycles: 110005209 heartbeat IPC: 4 cumulative IPC: 4 (Simulation time: 04 hr 08 min 19 sec)
Heartbeat CPU 7 instructions: 440000001 cycles: 110005215 heartbeat IPC: 4 cumulative IPC: 4 (Simulation time: 04 hr 08 min 19 sec)
Heartbeat CPU 4 instructions: 440000001 cycles: 110005240 heartbeat IPC: 4 cumulative IPC: 4 (Simulation time: 04 hr 08 min 19 sec)
Heartbeat CPU 3 instructions: 440000001 cycles: 110005262 heartbeat IPC: 4 cumulative IPC: 4 (Simulation time: 04 hr 08 min 19 sec)
*** Reached end of trace: (5, "traces/canneal_big0.champsimtrace")
*** Reached end of trace: (0, "traces/canneal_big0.champsimtrace")
Heartbeat CPU 0 instructions: 230000051 cycles: 110610725 heartbeat IPC: 2.055 cumulative IPC: 2.075 (Simulation time: 04 hr 09 min 42 sec)
*** Reached end of trace: (2, "traces/canneal_big2.champsimtrace")
*** Reached end of trace: (7, "traces/canneal_big2.champsimtrace")
*** Reached end of trace: (4, "traces/canneal_big4.champsimtrace")
*** Reached end of trace: (3, "traces/canneal_big3.champsimtrace")
*** Reached end of trace: (2, "traces/canneal_big2.champsimtrace")
*** Reached end of trace: (7, "traces/canneal_big2.champsimtrace")
*** Reached end of trace: (4, "traces/canneal_big4.champsimtrace")
*** Reached end of trace: (3, "traces/canneal_big3.champsimtrace")
Heartbeat CPU 2 instructions: 450000001 cycles: 112505209 heartbeat IPC: 4 cumulative IPC: 4 (Simulation time: 04 hr 13 min 56 sec)
Heartbeat CPU 7 instructions: 450000001 cycles: 112505215 heartbeat IPC: 4 cumulative IPC: 4 (Simulation time: 04 hr 13 min 56 sec)
Heartbeat CPU 4 instructions: 450000001 cycles: 112505240 heartbeat IPC: 4 cumulative IPC: 4 (Simulation time: 04 hr 13 min 56 sec)
Heartbeat CPU 3 instructions: 450000001 cycles: 112505262 heartbeat IPC: 4 cumulative IPC: 4 (Simulation time: 04 hr 13 min 56 sec)
*** Reached end of trace: (5, "traces/canneal_big0.champsimtrace")
Heartbeat CPU 5 instructions: 230000051 cycles: 112575291 heartbeat IPC: 2.054 cumulative IPC: 2.038 (Simulation time: 04 hr 14 min 05 sec)
*** Reached end of trace: (0, "traces/canneal_big0.champsimtrace")
*** Reached end of trace: (2, "traces/canneal_big2.champsimtrace")
*** Reached end of trace: (7, "traces/canneal_big2.champsimtrace")
*** Reached end of trace: (4, "traces/canneal_big4.champsimtrace")
*** Reached end of trace: (3, "traces/canneal_big3.champsimtrace")
*** Reached end of trace: (5, "traces/canneal_big0.champsimtrace")
*** Reached end of trace: (2, "traces/canneal_big2.champsimtrace")
*** Reached end of trace: (7, "traces/canneal_big2.champsimtrace")
*** Reached end of trace: (4, "traces/canneal_big4.champsimtrace")
*** Reached end of trace: (3, "traces/canneal_big3.champsimtrace")
Heartbeat CPU 2 instructions: 460000001 cycles: 115005209 heartbeat IPC: 4 cumulative IPC: 4 (Simulation time: 04 hr 19 min 37 sec)
Heartbeat CPU 7 instructions: 460000001 cycles: 115005215 heartbeat IPC: 4 cumulative IPC: 4 (Simulation time: 04 hr 19 min 37 sec)
Heartbeat CPU 4 instructions: 460000001 cycles: 115005240 heartbeat IPC: 4 cumulative IPC: 4 (Simulation time: 04 hr 19 min 37 sec)
Heartbeat CPU 3 instructions: 460000001 cycles: 115005262 heartbeat IPC: 4 cumulative IPC: 4 (Simulation time: 04 hr 19 min 37 sec)
*** Reached end of trace: (0, "traces/canneal_big0.champsimtrace")
Heartbeat CPU 0 instructions: 240000052 cycles: 115443545 heartbeat IPC: 2.069 cumulative IPC: 2.075 (Simulation time: 04 hr 20 min 38 sec)
*** Reached end of trace: (2, "traces/canneal_big2.champsimtrace")
*** Reached end of trace: (7, "traces/canneal_big2.champsimtrace")
*** Reached end of trace: (4, "traces/canneal_big4.champsimtrace")
*** Reached end of trace: (3, "traces/canneal_big3.champsimtrace")
*** Reached end of trace: (5, "traces/canneal_big0.champsimtrace")
Heartbeat CPU 5 instructions: 240000052 cycles: 117437873 heartbeat IPC: 2.057 cumulative IPC: 2.039 (Simulation time: 04 hr 25 min 06 sec)
*** Reached end of trace: (2, "traces/canneal_big2.champsimtrace")
*** Reached end of trace: (7, "traces/canneal_big2.champsimtrace")
*** Reached end of trace: (4, "traces/canneal_big4.champsimtrace")
*** Reached end of trace: (3, "traces/canneal_big3.champsimtrace")
Heartbeat CPU 2 instructions: 470000001 cycles: 117505209 heartbeat IPC: 4 cumulative IPC: 4 (Simulation time: 04 hr 25 min 15 sec)
Heartbeat CPU 7 instructions: 470000001 cycles: 117505215 heartbeat IPC: 4 cumulative IPC: 4 (Simulation time: 04 hr 25 min 15 sec)
Heartbeat CPU 4 instructions: 470000001 cycles: 117505240 heartbeat IPC: 4 cumulative IPC: 4 (Simulation time: 04 hr 25 min 15 sec)
Heartbeat CPU 3 instructions: 470000001 cycles: 117505262 heartbeat IPC: 4 cumulative IPC: 4 (Simulation time: 04 hr 25 min 15 sec)
*** Reached end of trace: (0, "traces/canneal_big0.champsimtrace")
*** Reached end of trace: (2, "traces/canneal_big2.champsimtrace")
*** Reached end of trace: (7, "traces/canneal_big2.champsimtrace")
*** Reached end of trace: (4, "traces/canneal_big4.champsimtrace")
*** Reached end of trace: (3, "traces/canneal_big3.champsimtrace")
*** Reached end of trace: (5, "traces/canneal_big0.champsimtrace")
*** Reached end of trace: (2, "traces/canneal_big2.champsimtrace")
*** Reached end of trace: (7, "traces/canneal_big2.champsimtrace")
*** Reached end of trace: (4, "traces/canneal_big4.champsimtrace")
*** Reached end of trace: (3, "traces/canneal_big3.champsimtrace")
Heartbeat CPU 2 instructions: 480000001 cycles: 120005209 heartbeat IPC: 4 cumulative IPC: 4 (Simulation time: 04 hr 30 min 53 sec)
Heartbeat CPU 7 instructions: 480000001 cycles: 120005215 heartbeat IPC: 4 cumulative IPC: 4 (Simulation time: 04 hr 30 min 53 sec)
Heartbeat CPU 4 instructions: 480000001 cycles: 120005240 heartbeat IPC: 4 cumulative IPC: 4 (Simulation time: 04 hr 30 min 53 sec)
Heartbeat CPU 3 instructions: 480000001 cycles: 120005262 heartbeat IPC: 4 cumulative IPC: 4 (Simulation time: 04 hr 30 min 53 sec)
*** Reached end of trace: (0, "traces/canneal_big0.champsimtrace")
Heartbeat CPU 0 instructions: 250000055 cycles: 120285926 heartbeat IPC: 2.065 cumulative IPC: 2.074 (Simulation time: 04 hr 31 min 32 sec)
*** Reached end of trace: (2, "traces/canneal_big2.champsimtrace")
*** Reached end of trace: (7, "traces/canneal_big2.champsimtrace")
*** Reached end of trace: (4, "traces/canneal_big4.champsimtrace")
*** Reached end of trace: (3, "traces/canneal_big3.champsimtrace")
*** Reached end of trace: (1, "traces/canneal_big1.champsimtrace")
Heartbeat CPU 1 instructions: 30000004 cycles: 122089238 heartbeat IPC: 0.2424 cumulative IPC: 0.2417 (Simulation time: 04 hr 35 min 37 sec)
*** Reached end of trace: (5, "traces/canneal_big0.champsimtrace")
Heartbeat CPU 5 instructions: 250000055 cycles: 122284367 heartbeat IPC: 2.063 cumulative IPC: 2.04 (Simulation time: 04 hr 36 min 04 sec)
*** Reached end of trace: (2, "traces/canneal_big2.champsimtrace")
*** Reached end of trace: (7, "traces/canneal_big2.champsimtrace")
*** Reached end of trace: (4, "traces/canneal_big4.champsimtrace")
*** Reached end of trace: (3, "traces/canneal_big3.champsimtrace")
Heartbeat CPU 2 instructions: 490000001 cycles: 122505209 heartbeat IPC: 4 cumulative IPC: 4 (Simulation time: 04 hr 36 min 35 sec)
Heartbeat CPU 7 instructions: 490000001 cycles: 122505215 heartbeat IPC: 4 cumulative IPC: 4 (Simulation time: 04 hr 36 min 35 sec)
Heartbeat CPU 4 instructions: 490000001 cycles: 122505240 heartbeat IPC: 4 cumulative IPC: 4 (Simulation time: 04 hr 36 min 35 sec)
Heartbeat CPU 3 instructions: 490000001 cycles: 122505262 heartbeat IPC: 4 cumulative IPC: 4 (Simulation time: 04 hr 36 min 35 sec)
*** Reached end of trace: (6, "traces/canneal_big1.champsimtrace")
Heartbeat CPU 6 instructions: 30000004 cycles: 122683085 heartbeat IPC: 0.2411 cumulative IPC: 0.2405 (Simulation time: 04 hr 37 min 00 sec)
*** Reached end of trace: (0, "traces/canneal_big0.champsimtrace")
*** Reached end of trace: (2, "traces/canneal_big2.champsimtrace")
*** Reached end of trace: (7, "traces/canneal_big2.champsimtrace")
*** Reached end of trace: (4, "traces/canneal_big4.champsimtrace")
*** Reached end of trace: (3, "traces/canneal_big3.champsimtrace")
*** Reached end of trace: (5, "traces/canneal_big0.champsimtrace")
*** Reached end of trace: (2, "traces/canneal_big2.champsimtrace")
*** Reached end of trace: (7, "traces/canneal_big2.champsimtrace")
*** Reached end of trace: (4, "traces/canneal_big4.champsimtrace")
*** Reached end of trace: (3, "traces/canneal_big3.champsimtrace")
Heartbeat CPU 2 instructions: 500000001 cycles: 125005209 heartbeat IPC: 4 cumulative IPC: 4 (Simulation time: 04 hr 44 min 37 sec)
Heartbeat CPU 7 instructions: 500000001 cycles: 125005215 heartbeat IPC: 4 cumulative IPC: 4 (Simulation time: 04 hr 44 min 37 sec)
Heartbeat CPU 4 instructions: 500000001 cycles: 125005240 heartbeat IPC: 4 cumulative IPC: 4 (Simulation time: 04 hr 44 min 37 sec)
Heartbeat CPU 3 instructions: 500000001 cycles: 125005262 heartbeat IPC: 4 cumulative IPC: 4 (Simulation time: 04 hr 44 min 37 sec)
*** Reached end of trace: (0, "traces/canneal_big0.champsimtrace")
Heartbeat CPU 0 instructions: 260000058 cycles: 125140639 heartbeat IPC: 2.06 cumulative IPC: 2.074 (Simulation time: 04 hr 44 min 56 sec)
*** Reached end of trace: (2, "traces/canneal_big2.champsimtrace")
*** Reached end of trace: (7, "traces/canneal_big2.champsimtrace")
*** Reached end of trace: (4, "traces/canneal_big4.champsimtrace")
*** Reached end of trace: (3, "traces/canneal_big3.champsimtrace")
*** Reached end of trace: (5, "traces/canneal_big0.champsimtrace")
Heartbeat CPU 5 instructions: 260000058 cycles: 127161768 heartbeat IPC: 2.05 cumulative IPC: 2.04 (Simulation time: 04 hr 49 min 27 sec)
*** Reached end of trace: (2, "traces/canneal_big2.champsimtrace")
*** Reached end of trace: (7, "traces/canneal_big2.champsimtrace")
*** Reached end of trace: (4, "traces/canneal_big4.champsimtrace")
*** Reached end of trace: (3, "traces/canneal_big3.champsimtrace")
Heartbeat CPU 2 instructions: 510000001 cycles: 127505209 heartbeat IPC: 4 cumulative IPC: 4 (Simulation time: 04 hr 50 min 14 sec)
Heartbeat CPU 7 instructions: 510000001 cycles: 127505215 heartbeat IPC: 4 cumulative IPC: 4 (Simulation time: 04 hr 50 min 14 sec)
Heartbeat CPU 4 instructions: 510000001 cycles: 127505240 heartbeat IPC: 4 cumulative IPC: 4 (Simulation time: 04 hr 50 min 14 sec)
Heartbeat CPU 3 instructions: 510000001 cycles: 127505262 heartbeat IPC: 4 cumulative IPC: 4 (Simulation time: 04 hr 50 min 14 sec)
*** Reached end of trace: (0, "traces/canneal_big0.champsimtrace")
*** Reached end of trace: (2, "traces/canneal_big2.champsimtrace")
*** Reached end of trace: (7, "traces/canneal_big2.champsimtrace")
*** Reached end of trace: (4, "traces/canneal_big4.champsimtrace")
*** Reached end of trace: (3, "traces/canneal_big3.champsimtrace")
*** Reached end of trace: (5, "traces/canneal_big0.champsimtrace")
*** Reached end of trace: (0, "traces/canneal_big0.champsimtrace")
Heartbeat CPU 0 instructions: 270000061 cycles: 129986953 heartbeat IPC: 2.063 cumulative IPC: 2.073 (Simulation time: 04 hr 55 min 47 sec)
*** Reached end of trace: (2, "traces/canneal_big2.champsimtrace")
*** Reached end of trace: (7, "traces/canneal_big2.champsimtrace")
*** Reached end of trace: (4, "traces/canneal_big4.champsimtrace")
*** Reached end of trace: (3, "traces/canneal_big3.champsimtrace")
Heartbeat CPU 2 instructions: 520000001 cycles: 130005209 heartbeat IPC: 4 cumulative IPC: 4 (Simulation time: 04 hr 55 min 50 sec)
Heartbeat CPU 7 instructions: 520000001 cycles: 130005215 heartbeat IPC: 4 cumulative IPC: 4 (Simulation time: 04 hr 55 min 50 sec)
Heartbeat CPU 4 instructions: 520000001 cycles: 130005240 heartbeat IPC: 4 cumulative IPC: 4 (Simulation time: 04 hr 55 min 50 sec)
Heartbeat CPU 3 instructions: 520000001 cycles: 130005262 heartbeat IPC: 4 cumulative IPC: 4 (Simulation time: 04 hr 55 min 50 sec)
*** Reached end of trace: (2, "traces/canneal_big2.champsimtrace")
*** Reached end of trace: (7, "traces/canneal_big2.champsimtrace")
*** Reached end of trace: (4, "traces/canneal_big4.champsimtrace")
*** Reached end of trace: (3, "traces/canneal_big3.champsimtrace")
*** Reached end of trace: (5, "traces/canneal_big0.champsimtrace")
Heartbeat CPU 5 instructions: 270000058 cycles: 132020509 heartbeat IPC: 2.058 cumulative IPC: 2.041 (Simulation time: 05 hr 00 min 22 sec)
*** Reached end of trace: (0, "traces/canneal_big0.champsimtrace")
*** Reached end of trace: (2, "traces/canneal_big2.champsimtrace")
*** Reached end of trace: (7, "traces/canneal_big2.champsimtrace")
*** Reached end of trace: (4, "traces/canneal_big4.champsimtrace")
*** Reached end of trace: (3, "traces/canneal_big3.champsimtrace")
Heartbeat CPU 2 instructions: 530000001 cycles: 132505209 heartbeat IPC: 4 cumulative IPC: 4 (Simulation time: 05 hr 01 min 28 sec)
Heartbeat CPU 7 instructions: 530000001 cycles: 132505215 heartbeat IPC: 4 cumulative IPC: 4 (Simulation time: 05 hr 01 min 28 sec)
Heartbeat CPU 4 instructions: 530000001 cycles: 132505240 heartbeat IPC: 4 cumulative IPC: 4 (Simulation time: 05 hr 01 min 28 sec)
Heartbeat CPU 3 instructions: 530000001 cycles: 132505262 heartbeat IPC: 4 cumulative IPC: 4 (Simulation time: 05 hr 01 min 28 sec)
*** Reached end of trace: (2, "traces/canneal_big2.champsimtrace")
*** Reached end of trace: (7, "traces/canneal_big2.champsimtrace")
*** Reached end of trace: (4, "traces/canneal_big4.champsimtrace")
*** Reached end of trace: (3, "traces/canneal_big3.champsimtrace")
*** Reached end of trace: (5, "traces/canneal_big0.champsimtrace")
*** Reached end of trace: (0, "traces/canneal_big0.champsimtrace")
Heartbeat CPU 0 instructions: 280000061 cycles: 134826739 heartbeat IPC: 2.066 cumulative IPC: 2.073 (Simulation time: 05 hr 06 min 43 sec)
*** Reached end of trace: (2, "traces/canneal_big2.champsimtrace")
*** Reached end of trace: (7, "traces/canneal_big2.champsimtrace")
*** Reached end of trace: (4, "traces/canneal_big4.champsimtrace")
*** Reached end of trace: (3, "traces/canneal_big3.champsimtrace")
Heartbeat CPU 2 instructions: 540000001 cycles: 135005209 heartbeat IPC: 4 cumulative IPC: 4 (Simulation time: 05 hr 07 min 07 sec)
Heartbeat CPU 7 instructions: 540000001 cycles: 135005215 heartbeat IPC: 4 cumulative IPC: 4 (Simulation time: 05 hr 07 min 07 sec)
Heartbeat CPU 4 instructions: 540000001 cycles: 135005240 heartbeat IPC: 4 cumulative IPC: 4 (Simulation time: 05 hr 07 min 07 sec)
Heartbeat CPU 3 instructions: 540000001 cycles: 135005262 heartbeat IPC: 4 cumulative IPC: 4 (Simulation time: 05 hr 07 min 07 sec)
*** Reached end of trace: (2, "traces/canneal_big2.champsimtrace")
*** Reached end of trace: (7, "traces/canneal_big2.champsimtrace")
*** Reached end of trace: (4, "traces/canneal_big4.champsimtrace")
*** Reached end of trace: (3, "traces/canneal_big3.champsimtrace")
*** Reached end of trace: (5, "traces/canneal_big0.champsimtrace")
Heartbeat CPU 5 instructions: 280000059 cycles: 136868299 heartbeat IPC: 2.063 cumulative IPC: 2.042 (Simulation time: 05 hr 11 min 17 sec)
*** Reached end of trace: (0, "traces/canneal_big0.champsimtrace")
*** Reached end of trace: (2, "traces/canneal_big2.champsimtrace")
*** Reached end of trace: (7, "traces/canneal_big2.champsimtrace")
*** Reached end of trace: (4, "traces/canneal_big4.champsimtrace")
*** Reached end of trace: (3, "traces/canneal_big3.champsimtrace")
Heartbeat CPU 2 instructions: 550000001 cycles: 137505209 heartbeat IPC: 4 cumulative IPC: 4 (Simulation time: 05 hr 12 min 44 sec)
Heartbeat CPU 7 instructions: 550000001 cycles: 137505215 heartbeat IPC: 4 cumulative IPC: 4 (Simulation time: 05 hr 12 min 44 sec)
Heartbeat CPU 4 instructions: 550000001 cycles: 137505240 heartbeat IPC: 4 cumulative IPC: 4 (Simulation time: 05 hr 12 min 44 sec)
Heartbeat CPU 3 instructions: 550000001 cycles: 137505262 heartbeat IPC: 4 cumulative IPC: 4 (Simulation time: 05 hr 12 min 44 sec)
*** Reached end of trace: (2, "traces/canneal_big2.champsimtrace")
*** Reached end of trace: (7, "traces/canneal_big2.champsimtrace")
*** Reached end of trace: (4, "traces/canneal_big4.champsimtrace")
*** Reached end of trace: (3, "traces/canneal_big3.champsimtrace")
*** Reached end of trace: (5, "traces/canneal_big0.champsimtrace")
*** Reached end of trace: (0, "traces/canneal_big0.champsimtrace")
Heartbeat CPU 0 instructions: 290000062 cycles: 139662259 heartbeat IPC: 2.068 cumulative IPC: 2.073 (Simulation time: 05 hr 17 min 34 sec)
*** Reached end of trace: (2, "traces/canneal_big2.champsimtrace")
*** Reached end of trace: (7, "traces/canneal_big2.champsimtrace")
*** Reached end of trace: (4, "traces/canneal_big4.champsimtrace")
*** Reached end of trace: (3, "traces/canneal_big3.champsimtrace")
Heartbeat CPU 2 instructions: 560000001 cycles: 140005209 heartbeat IPC: 4 cumulative IPC: 4 (Simulation time: 05 hr 18 min 20 sec)
Heartbeat CPU 7 instructions: 560000001 cycles: 140005215 heartbeat IPC: 4 cumulative IPC: 4 (Simulation time: 05 hr 18 min 20 sec)
Heartbeat CPU 4 instructions: 560000001 cycles: 140005240 heartbeat IPC: 4 cumulative IPC: 4 (Simulation time: 05 hr 18 min 20 sec)
Heartbeat CPU 3 instructions: 560000001 cycles: 140005262 heartbeat IPC: 4 cumulative IPC: 4 (Simulation time: 05 hr 18 min 20 sec)
*** Reached end of trace: (2, "traces/canneal_big2.champsimtrace")
*** Reached end of trace: (7, "traces/canneal_big2.champsimtrace")
*** Reached end of trace: (4, "traces/canneal_big4.champsimtrace")
*** Reached end of trace: (3, "traces/canneal_big3.champsimtrace")
*** Reached end of trace: (5, "traces/canneal_big0.champsimtrace")
[...]
cpu5->cpu5_L2C PREFETCH     ACCESS:          0 HIT:          0 MISS:          0 MSHR_MERGE:          0
cpu5->cpu5_L2C WRITE        ACCESS:    4322768 HIT:    4322768 MISS:          0 MSHR_MERGE:          0
cpu5->cpu5_L2C TRANSLATION  ACCESS:         13 HIT:          0 MISS:         13 MSHR_MERGE:          0
cpu5->cpu5_L2C PREFETCH REQUESTED:          0 ISSUED:          0 USEFUL:          0 USELESS:          0
cpu5->cpu5_L2C AVERAGE MISS LATENCY: 169.3 cycles
cpu5->cpu5_L1I TOTAL        ACCESS:  131197323 HIT:  130881329 MISS:     315994 MSHR_MERGE:      85304
cpu5->cpu5_L1I LOAD         ACCESS:  131197323 HIT:  130881329 MISS:     315994 MSHR_MERGE:      85304
cpu5->cpu5_L1I RFO          ACCESS:          0 HIT:          0 MISS:          0 MSHR_MERGE:          0
cpu5->cpu5_L1I PREFETCH     ACCESS:          0 HIT:          0 MISS:          0 MSHR_MERGE:          0
cpu5->cpu5_L1I WRITE        ACCESS:          0 HIT:          0 MISS:          0 MSHR_MERGE:          0
cpu5->cpu5_L1I TRANSLATION  ACCESS:          0 HIT:          0 MISS:          0 MSHR_MERGE:          0
cpu5->cpu5_L1I PREFETCH REQUESTED:          0 ISSUED:          0 USEFUL:          0 USELESS:          0
cpu5->cpu5_L1I AVERAGE MISS LATENCY: 345.6 cycles
cpu5->cpu5_L1D TOTAL        ACCESS:  170696539 HIT:  148289105 MISS:   22407434 MSHR_MERGE:   16767991
cpu5->cpu5_L1D LOAD         ACCESS:   17146906 HIT:   14366794 MISS:    2780112 MSHR_MERGE:    1403416
cpu5->cpu5_L1D RFO          ACCESS:          0 HIT:          0 MISS:          0 MSHR_MERGE:          0
cpu5->cpu5_L1D PREFETCH     ACCESS:          0 HIT:          0 MISS:          0 MSHR_MERGE:          0
cpu5->cpu5_L1D WRITE        ACCESS:  153549609 HIT:  133922300 MISS:   19627309 MSHR_MERGE:   15364575
cpu5->cpu5_L1D TRANSLATION  ACCESS:         24 HIT:         11 MISS:         13 MSHR_MERGE:          0
cpu5->cpu5_L1D PREFETCH REQUESTED:          0 ISSUED:          0 USEFUL:          0 USELESS:          0
cpu5->cpu5_L1D AVERAGE MISS LATENCY: 151.5 cycles
cpu5->cpu5_ITLB TOTAL        ACCESS:  109945381 HIT:  109899471 MISS:      45910 MSHR_MERGE:      16840
cpu5->cpu5_ITLB LOAD         ACCESS:  109945381 HIT:  109899471 MISS:      45910 MSHR_MERGE:      16840
cpu5->cpu5_ITLB RFO          ACCESS:          0 HIT:          0 MISS:          0 MSHR_MERGE:          0
cpu5->cpu5_ITLB PREFETCH     ACCESS:          0 HIT:          0 MISS:          0 MSHR_MERGE:          0
cpu5->cpu5_ITLB WRITE        ACCESS:          0 HIT:          0 MISS:          0 MSHR_MERGE:          0
cpu5->cpu5_ITLB TRANSLATION  ACCESS:          0 HIT:          0 MISS:          0 MSHR_MERGE:          0
cpu5->cpu5_ITLB PREFETCH REQUESTED:          0 ISSUED:          0 USEFUL:          0 USELESS:          0
cpu5->cpu5_ITLB AVERAGE MISS LATENCY: 4 cycles
cpu5->cpu5_DTLB TOTAL        ACCESS:  138581513 HIT:  138213895 MISS:     367618 MSHR_MERGE:      77607
cpu5->cpu5_DTLB LOAD         ACCESS:  138581513 HIT:  138213895 MISS:     367618 MSHR_MERGE:      77607
cpu5->cpu5_DTLB RFO          ACCESS:          0 HIT:          0 MISS:          0 MSHR_MERGE:          0
cpu5->cpu5_DTLB PREFETCH     ACCESS:          0 HIT:          0 MISS:          0 MSHR_MERGE:          0
cpu5->cpu5_DTLB WRITE        ACCESS:          0 HIT:          0 MISS:          0 MSHR_MERGE:          0
cpu5->cpu5_DTLB TRANSLATION  ACCESS:          0 HIT:          0 MISS:          0 MSHR_MERGE:          0
cpu5->cpu5_DTLB PREFETCH REQUESTED:          0 ISSUED:          0 USEFUL:          0 USELESS:          0
cpu5->cpu5_DTLB AVERAGE MISS LATENCY: 4.037 cycles
cpu4->cpu4_L1I TOTAL        ACCESS:  223249513 HIT:  223249513 MISS:          0 MSHR_MERGE:          0
cpu4->cpu4_L1I LOAD         ACCESS:  223249513 HIT:  223249513 MISS:          0 MSHR_MERGE:          0
cpu4->cpu4_L1I RFO          ACCESS:          0 HIT:          0 MISS:          0 MSHR_MERGE:          0
cpu4->cpu4_L1I PREFETCH     ACCESS:          0 HIT:          0 MISS:          0 MSHR_MERGE:          0
cpu4->cpu4_L1I WRITE        ACCESS:          0 HIT:          0 MISS:          0 MSHR_MERGE:          0
cpu4->cpu4_L1I TRANSLATION  ACCESS:          0 HIT:          0 MISS:          0 MSHR_MERGE:          0
cpu4->cpu4_L1I PREFETCH REQUESTED:          0 ISSUED:          0 USEFUL:          0 USELESS:          0
cpu4->cpu4_L1I AVERAGE MISS LATENCY: - cycles
cpu4->cpu4_ITLB TOTAL        ACCESS:  185663163 HIT:  185663163 MISS:          0 MSHR_MERGE:          0
cpu4->cpu4_ITLB LOAD         ACCESS:  185663163 HIT:  185663163 MISS:          0 MSHR_MERGE:          0
cpu4->cpu4_ITLB RFO          ACCESS:          0 HIT:          0 MISS:          0 MSHR_MERGE:          0
cpu4->cpu4_ITLB PREFETCH     ACCESS:          0 HIT:          0 MISS:          0 MSHR_MERGE:          0
cpu4->cpu4_ITLB WRITE        ACCESS:          0 HIT:          0 MISS:          0 MSHR_MERGE:          0
cpu4->cpu4_ITLB TRANSLATION  ACCESS:          0 HIT:          0 MISS:          0 MSHR_MERGE:          0
cpu4->cpu4_ITLB PREFETCH REQUESTED:          0 ISSUED:          0 USEFUL:          0 USELESS:          0
cpu4->cpu4_ITLB AVERAGE MISS LATENCY: - cycles
cpu3->cpu3_L1I TOTAL        ACCESS:  238852785 HIT:  238852785 MISS:          0 MSHR_MERGE:          0
cpu3->cpu3_L1I LOAD         ACCESS:  238852785 HIT:  238852785 MISS:          0 MSHR_MERGE:          0
cpu3->cpu3_L1I RFO          ACCESS:          0 HIT:          0 MISS:          0 MSHR_MERGE:          0
cpu3->cpu3_L1I PREFETCH     ACCESS:          0 HIT:          0 MISS:          0 MSHR_MERGE:          0
cpu3->cpu3_L1I WRITE        ACCESS:          0 HIT:          0 MISS:          0 MSHR_MERGE:          0
cpu3->cpu3_L1I TRANSLATION  ACCESS:          0 HIT:          0 MISS:          0 MSHR_MERGE:          0
cpu3->cpu3_L1I PREFETCH REQUESTED:          0 ISSUED:          0 USEFUL:          0 USELESS:          0
cpu3->cpu3_L1I AVERAGE MISS LATENCY: - cycles
cpu3->cpu3_ITLB TOTAL        ACCESS:  199353586 HIT:  199353586 MISS:          0 MSHR_MERGE:          0
cpu3->cpu3_ITLB LOAD         ACCESS:  199353586 HIT:  199353586 MISS:          0 MSHR_MERGE:          0
cpu3->cpu3_ITLB RFO          ACCESS:          0 HIT:          0 MISS:          0 MSHR_MERGE:          0
cpu3->cpu3_ITLB PREFETCH     ACCESS:          0 HIT:          0 MISS:          0 MSHR_MERGE:          0
cpu3->cpu3_ITLB WRITE        ACCESS:          0 HIT:          0 MISS:          0 MSHR_MERGE:          0
cpu3->cpu3_ITLB TRANSLATION  ACCESS:          0 HIT:          0 MISS:          0 MSHR_MERGE:          0
cpu3->cpu3_ITLB PREFETCH REQUESTED:          0 ISSUED:          0 USEFUL:          0 USELESS:          0
cpu3->cpu3_ITLB AVERAGE MISS LATENCY: - cycles
cpu2->cpu2_L1I TOTAL        ACCESS:  219903186 HIT:  219903186 MISS:          0 MSHR_MERGE:          0
cpu2->cpu2_L1I LOAD         ACCESS:  219903186 HIT:  219903186 MISS:          0 MSHR_MERGE:          0
cpu2->cpu2_L1I RFO          ACCESS:          0 HIT:          0 MISS:          0 MSHR_MERGE:          0
cpu2->cpu2_L1I PREFETCH     ACCESS:          0 HIT:          0 MISS:          0 MSHR_MERGE:          0
cpu2->cpu2_L1I WRITE        ACCESS:          0 HIT:          0 MISS:          0 MSHR_MERGE:          0
cpu2->cpu2_L1I TRANSLATION  ACCESS:          0 HIT:          0 MISS:          0 MSHR_MERGE:          0
cpu2->cpu2_L1I PREFETCH REQUESTED:          0 ISSUED:          0 USEFUL:          0 USELESS:          0
cpu2->cpu2_L1I AVERAGE MISS LATENCY: - cycles
cpu2->cpu2_ITLB TOTAL        ACCESS:  191220786 HIT:  191220786 MISS:          0 MSHR_MERGE:          0
cpu2->cpu2_ITLB LOAD         ACCESS:  191220786 HIT:  191220786 MISS:          0 MSHR_MERGE:          0
cpu2->cpu2_ITLB RFO          ACCESS:          0 HIT:          0 MISS:          0 MSHR_MERGE:          0
cpu2->cpu2_ITLB PREFETCH     ACCESS:          0 HIT:          0 MISS:          0 MSHR_MERGE:          0
cpu2->cpu2_ITLB WRITE        ACCESS:          0 HIT:          0 MISS:          0 MSHR_MERGE:          0
cpu2->cpu2_ITLB TRANSLATION  ACCESS:          0 HIT:          0 MISS:          0 MSHR_MERGE:          0
cpu2->cpu2_ITLB PREFETCH REQUESTED:          0 ISSUED:          0 USEFUL:          0 USELESS:          0
cpu2->cpu2_ITLB AVERAGE MISS LATENCY: - cycles
cpu1->cpu1_STLB TOTAL        ACCESS:    2232074 HIT:    2034884 MISS:     197190 MSHR_MERGE:          0
cpu1->cpu1_STLB LOAD         ACCESS:    2232074 HIT:    2034884 MISS:     197190 MSHR_MERGE:          0
cpu1->cpu1_STLB RFO          ACCESS:          0 HIT:          0 MISS:          0 MSHR_MERGE:          0
cpu1->cpu1_STLB PREFETCH     ACCESS:          0 HIT:          0 MISS:          0 MSHR_MERGE:          0
cpu1->cpu1_STLB WRITE        ACCESS:          0 HIT:          0 MISS:          0 MSHR_MERGE:          0
cpu1->cpu1_STLB TRANSLATION  ACCESS:          0 HIT:          0 MISS:          0 MSHR_MERGE:          0
cpu1->cpu1_STLB PREFETCH REQUESTED:          0 ISSUED:          0 USEFUL:          0 USELESS:          0
cpu1->cpu1_STLB AVERAGE MISS LATENCY: 629.7 cycles
cpu1->cpu1_L2C TOTAL        ACCESS:    2363835 HIT:     411760 MISS:    1952075 MSHR_MERGE:          0
cpu1->cpu1_L2C LOAD         ACCESS:    1973089 HIT:     410593 MISS:    1562496 MSHR_MERGE:          0
cpu1->cpu1_L2C RFO          ACCESS:          0 HIT:          0 MISS:          0 MSHR_MERGE:          0
cpu1->cpu1_L2C PREFETCH     ACCESS:          0 HIT:          0 MISS:          0 MSHR_MERGE:          0
cpu1->cpu1_L2C WRITE        ACCESS:          0 HIT:          0 MISS:          0 MSHR_MERGE:          0
cpu1->cpu1_L2C TRANSLATION  ACCESS:     390746 HIT:       1167 MISS:     389579 MSHR_MERGE:          0
cpu1->cpu1_L2C PREFETCH REQUESTED:          0 ISSUED:          0 USEFUL:          0 USELESS:          0
cpu1->cpu1_L2C AVERAGE MISS LATENCY: 311.6 cycles
cpu1->cpu1_L1I TOTAL        ACCESS:   34301843 HIT:   32127170 MISS:    2174673 MSHR_MERGE:     201584
cpu1->cpu1_L1I LOAD         ACCESS:   34301843 HIT:   32127170 MISS:    2174673 MSHR_MERGE:     201584
cpu1->cpu1_L1I RFO          ACCESS:          0 HIT:          0 MISS:          0 MSHR_MERGE:          0
cpu1->cpu1_L1I PREFETCH     ACCESS:          0 HIT:          0 MISS:          0 MSHR_MERGE:          0
cpu1->cpu1_L1I WRITE        ACCESS:          0 HIT:          0 MISS:          0 MSHR_MERGE:          0
cpu1->cpu1_L1I TRANSLATION  ACCESS:          0 HIT:          0 MISS:          0 MSHR_MERGE:          0
cpu1->cpu1_L1I PREFETCH REQUESTED:          0 ISSUED:          0 USEFUL:          0 USELESS:          0
cpu1->cpu1_L1I AVERAGE MISS LATENCY: 256.2 cycles
cpu1->cpu1_L1D TOTAL        ACCESS:     394521 HIT:       3775 MISS:     390746 MSHR_MERGE:          0
cpu1->cpu1_L1D LOAD         ACCESS:          0 HIT:          0 MISS:          0 MSHR_MERGE:          0
cpu1->cpu1_L1D RFO          ACCESS:          0 HIT:          0 MISS:          0 MSHR_MERGE:          0
cpu1->cpu1_L1D PREFETCH     ACCESS:          0 HIT:          0 MISS:          0 MSHR_MERGE:          0
cpu1->cpu1_L1D WRITE        ACCESS:          0 HIT:          0 MISS:          0 MSHR_MERGE:          0
cpu1->cpu1_L1D TRANSLATION  ACCESS:     394521 HIT:       3775 MISS:     390746 MSHR_MERGE:          0
cpu1->cpu1_L1D PREFETCH REQUESTED:          0 ISSUED:          0 USEFUL:          0 USELESS:          0
cpu1->cpu1_L1D AVERAGE MISS LATENCY: 310 cycles
cpu1->cpu1_ITLB TOTAL        ACCESS:   33761925 HIT:   31478469 MISS:    2283456 MSHR_MERGE:      51382
cpu1->cpu1_ITLB LOAD         ACCESS:   33761925 HIT:   31478469 MISS:    2283456 MSHR_MERGE:      51382
cpu1->cpu1_ITLB RFO          ACCESS:          0 HIT:          0 MISS:          0 MSHR_MERGE:          0
cpu1->cpu1_ITLB PREFETCH     ACCESS:          0 HIT:          0 MISS:          0 MSHR_MERGE:          0
cpu1->cpu1_ITLB WRITE        ACCESS:          0 HIT:          0 MISS:          0 MSHR_MERGE:          0
cpu1->cpu1_ITLB TRANSLATION  ACCESS:          0 HIT:          0 MISS:          0 MSHR_MERGE:          0
cpu1->cpu1_ITLB PREFETCH REQUESTED:          0 ISSUED:          0 USEFUL:          0 USELESS:          0
cpu1->cpu1_ITLB AVERAGE MISS LATENCY: 59.72 cycles
cpu0->cpu0_STLB TOTAL        ACCESS:     323655 HIT:     323642 MISS:         13 MSHR_MERGE:          0
cpu0->cpu0_STLB LOAD         ACCESS:     323655 HIT:     323642 MISS:         13 MSHR_MERGE:          0
cpu0->cpu0_STLB RFO          ACCESS:          0 HIT:          0 MISS:          0 MSHR_MERGE:          0
cpu0->cpu0_STLB PREFETCH     ACCESS:          0 HIT:          0 MISS:          0 MSHR_MERGE:          0
cpu0->cpu0_STLB WRITE        ACCESS:          0 HIT:          0 MISS:          0 MSHR_MERGE:          0
cpu0->cpu0_STLB TRANSLATION  ACCESS:          0 HIT:          0 MISS:          0 MSHR_MERGE:          0
cpu0->cpu0_STLB PREFETCH REQUESTED:          0 ISSUED:          0 USEFUL:          0 USELESS:          0
cpu0->cpu0_STLB AVERAGE MISS LATENCY: 790.8 cycles
cpu0->cpu0_L2C TOTAL        ACCESS:   10318996 HIT:    4999409 MISS:    5319587 MSHR_MERGE:          0
cpu0->cpu0_L2C LOAD         ACCESS:    1633824 HIT:     548349 MISS:    1085475 MSHR_MERGE:          0
cpu0->cpu0_L2C RFO          ACCESS:    4308998 HIT:      75073 MISS:    4233925 MSHR_MERGE:          0
cpu0->cpu0_L2C PREFETCH     ACCESS:          0 HIT:          0 MISS:          0 MSHR_MERGE:          0
cpu0->cpu0_L2C WRITE        ACCESS:    4376160 HIT:    4375987 MISS:        173 MSHR_MERGE:          0
cpu0->cpu0_L2C TRANSLATION  ACCESS:         14 HIT:          0 MISS:         14 MSHR_MERGE:          0
cpu0->cpu0_L2C PREFETCH REQUESTED:          0 ISSUED:          0 USEFUL:          0 USELESS:          0
cpu0->cpu0_L2C AVERAGE MISS LATENCY: 169.2 cycles
cpu0->cpu0_L1I TOTAL        ACCESS:  144763676 HIT:  144441054 MISS:     322622 MSHR_MERGE:      88887
cpu0->cpu0_L1I LOAD         ACCESS:  144763676 HIT:  144441054 MISS:     322622 MSHR_MERGE:      88887
cpu0->cpu0_L1I RFO          ACCESS:          0 HIT:          0 MISS:          0 MSHR_MERGE:          0
cpu0->cpu0_L1I PREFETCH     ACCESS:          0 HIT:          0 MISS:          0 MSHR_MERGE:          0
cpu0->cpu0_L1I WRITE        ACCESS:          0 HIT:          0 MISS:          0 MSHR_MERGE:          0
cpu0->cpu0_L1I TRANSLATION  ACCESS:          0 HIT:          0 MISS:          0 MSHR_MERGE:          0
cpu0->cpu0_L1I PREFETCH REQUESTED:          0 ISSUED:          0 USEFUL:          0 USELESS:          0
cpu0->cpu0_L1I AVERAGE MISS LATENCY: 348.6 cycles
cpu0->cpu0_L1D TOTAL        ACCESS:  173433055 HIT:  150360763 MISS:   23072292 MSHR_MERGE:   17357442
cpu0->cpu0_L1D LOAD         ACCESS:   17833306 HIT:   14912952 MISS:    2920354 MSHR_MERGE:    1520264
cpu0->cpu0_L1D RFO          ACCESS:          0 HIT:          0 MISS:          0 MSHR_MERGE:          0
cpu0->cpu0_L1D PREFETCH     ACCESS:          0 HIT:          0 MISS:          0 MSHR_MERGE:          0
cpu0->cpu0_L1D WRITE        ACCESS:  155599723 HIT:  135447799 MISS:   20151924 MSHR_MERGE:   15837178
cpu0->cpu0_L1D TRANSLATION  ACCESS:         26 HIT:         12 MISS:         14 MSHR_MERGE:          0
cpu0->cpu0_L1D PREFETCH REQUESTED:          0 ISSUED:          0 USEFUL:          0 USELESS:          0
cpu0->cpu0_L1D AVERAGE MISS LATENCY: 151.4 cycles
cpu0->cpu0_ITLB TOTAL        ACCESS:  120533344 HIT:  120484682 MISS:      48662 MSHR_MERGE:      19212
cpu0->cpu0_ITLB LOAD         ACCESS:  120533344 HIT:  120484682 MISS:      48662 MSHR_MERGE:      19212
cpu0->cpu0_ITLB RFO          ACCESS:          0 HIT:          0 MISS:          0 MSHR_MERGE:          0
cpu0->cpu0_ITLB PREFETCH     ACCESS:          0 HIT:          0 MISS:          0 MSHR_MERGE:          0
cpu0->cpu0_ITLB WRITE        ACCESS:          0 HIT:          0 MISS:          0 MSHR_MERGE:          0
cpu0->cpu0_ITLB TRANSLATION  ACCESS:          0 HIT:          0 MISS:          0 MSHR_MERGE:          0
cpu0->cpu0_ITLB PREFETCH REQUESTED:          0 ISSUED:          0 USEFUL:          0 USELESS:          0
cpu0->cpu0_ITLB AVERAGE MISS LATENCY: 4.005 cycles
cpu0->cpu0_DTLB TOTAL        ACCESS:  144498684 HIT:  144120795 MISS:     377889 MSHR_MERGE:      83684
cpu0->cpu0_DTLB LOAD         ACCESS:  144498684 HIT:  144120795 MISS:     377889 MSHR_MERGE:      83684
cpu0->cpu0_DTLB RFO          ACCESS:          0 HIT:          0 MISS:          0 MSHR_MERGE:          0
cpu0->cpu0_DTLB PREFETCH     ACCESS:          0 HIT:          0 MISS:          0 MSHR_MERGE:          0
cpu0->cpu0_DTLB WRITE        ACCESS:          0 HIT:          0 MISS:          0 MSHR_MERGE:          0
cpu0->cpu0_DTLB TRANSLATION  ACCESS:          0 HIT:          0 MISS:          0 MSHR_MERGE:          0
cpu0->cpu0_DTLB PREFETCH REQUESTED:          0 ISSUED:          0 USEFUL:          0 USELESS:          0
cpu0->cpu0_DTLB AVERAGE MISS LATENCY: 4.035 cycles
cpu0->LLC TOTAL        ACCESS:    9603297 HIT:    5294004 MISS:    4309293 MSHR_MERGE:          0
cpu0->LLC LOAD         ACCESS:    1085475 HIT:      11379 MISS:    1074096 MSHR_MERGE:          0
cpu0->LLC RFO          ACCESS:    4233925 HIT:    2635622 MISS:    1598303 MSHR_MERGE:          0
cpu0->LLC PREFETCH     ACCESS:          0 HIT:          0 MISS:          0 MSHR_MERGE:          0
cpu0->LLC WRITE        ACCESS:    4283883 HIT:    2647003 MISS:    1636880 MSHR_MERGE:          0
cpu0->LLC TRANSLATION  ACCESS:         14 HIT:          0 MISS:         14 MSHR_MERGE:          0
cpu0->LLC PREFETCH REQUESTED:          0 ISSUED:          0 USEFUL:          0 USELESS:          0
cpu0->LLC AVERAGE MISS LATENCY: 646.6 cycles
cpu1->LLC TOTAL        ACCESS:    1952075 HIT:         19 MISS:    1952056 MSHR_MERGE:          0
cpu1->LLC LOAD         ACCESS:    1562496 HIT:          1 MISS:    1562495 MSHR_MERGE:          0
cpu1->LLC RFO          ACCESS:          0 HIT:          0 MISS:          0 MSHR_MERGE:          0
cpu1->LLC PREFETCH     ACCESS:          0 HIT:          0 MISS:          0 MSHR_MERGE:          0
cpu1->LLC WRITE        ACCESS:          0 HIT:          0 MISS:          0 MSHR_MERGE:          0
cpu1->LLC TRANSLATION  ACCESS:     389579 HIT:         18 MISS:     389561 MSHR_MERGE:          0
cpu1->LLC PREFETCH REQUESTED:          0 ISSUED:          0 USEFUL:          0 USELESS:          0
cpu1->LLC AVERAGE MISS LATENCY: 1427 cycles
cpu5->LLC TOTAL        ACCESS:    9473000 HIT:    5211361 MISS:    4261639 MSHR_MERGE:          0
cpu5->LLC LOAD         ACCESS:    1064385 HIT:      16839 MISS:    1047546 MSHR_MERGE:          0
cpu5->LLC RFO          ACCESS:    4182010 HIT:    2590258 MISS:    1591752 MSHR_MERGE:          0
cpu5->LLC PREFETCH     ACCESS:          0 HIT:          0 MISS:          0 MSHR_MERGE:          0
cpu5->LLC WRITE        ACCESS:    4226592 HIT:    2604264 MISS:    1622328 MSHR_MERGE:          0
cpu5->LLC TRANSLATION  ACCESS:         13 HIT:          0 MISS:         13 MSHR_MERGE:          0
cpu5->LLC PREFETCH REQUESTED:          0 ISSUED:          0 USEFUL:          0 USELESS:          0
cpu5->LLC AVERAGE MISS LATENCY: 653.8 cycles
cpu6->LLC TOTAL        ACCESS:    1942243 HIT:         19 MISS:    1942224 MSHR_MERGE:          0
cpu6->LLC LOAD         ACCESS:    1554506 HIT:          0 MISS:    1554506 MSHR_MERGE:          0
cpu6->LLC RFO          ACCESS:          0 HIT:          0 MISS:          0 MSHR_MERGE:          0
cpu6->LLC PREFETCH     ACCESS:          0 HIT:          0 MISS:          0 MSHR_MERGE:          0
cpu6->LLC WRITE        ACCESS:          0 HIT:          0 MISS:          0 MSHR_MERGE:          0
cpu6->LLC TRANSLATION  ACCESS:     387737 HIT:         19 MISS:     387718 MSHR_MERGE:          0
cpu6->LLC PREFETCH REQUESTED:          0 ISSUED:          0 USEFUL:          0 USELESS:          0
cpu6->LLC AVERAGE MISS LATENCY: 1435 cycles

DRAM Statistics

Channel 0 RQ ROW_BUFFER_HIT:     216910
  ROW_BUFFER_MISS:    8989019
  AVG DBUS CONGESTED CYCLE: 6.666
Channel 0 WQ ROW_BUFFER_HIT:     374604
  ROW_BUFFER_MISS:    2884267
  FULL:        435
Channel 0 REFRESHES ISSUED:      34660
