[VMEM] WARNING: physical memory size is smaller than virtual memory size.

*** ChampSim Multicore Out-of-Order Simulator ***
Warmup Instructions: 1000000
Simulation Instructions: 100000000
Number of CPUs: 8
Page size: 4096

Off-chip DRAM Size: 16 GiB Channels: 1 Width: 64-bit Data Rate: 3205 MT/s
Warmup finished CPU 2 instructions: 1000001 cycles: 255209 cumulative IPC: 3.918 (Simulation time: 00 hr 00 min 33 sec)
Warmup finished CPU 7 instructions: 1000001 cycles: 255215 cumulative IPC: 3.918 (Simulation time: 00 hr 00 min 33 sec)
Warmup finished CPU 4 instructions: 1000001 cycles: 255240 cumulative IPC: 3.918 (Simulation time: 00 hr 00 min 33 sec)
Warmup finished CPU 3 instructions: 1000001 cycles: 255262 cumulative IPC: 3.918 (Simulation time: 00 hr 00 min 33 sec)
Warmup finished CPU 5 instructions: 1000003 cycles: 336058 cumulative IPC: 2.976 (Simulation time: 00 hr 00 min 44 sec)
Warmup finished CPU 0 instructions: 1000003 cycles: 336617 cumulative IPC: 2.971 (Simulation time: 00 hr 00 min 44 sec)
*** Reached end of trace: (2, "traces/canneal_big2.champsimtrace")
*** Reached end of trace: (7, "traces/canneal_big2.champsimtrace")
*** Reached end of trace: (4, "traces/canneal_big4.champsimtrace")
*** Reached end of trace: (3, "traces/canneal_big3.champsimtrace")
Warmup finished CPU 1 instructions: 1000000 cycles: 2099127 cumulative IPC: 0.4764 (Simulation time: 00 hr 04 min 30 sec)
Warmup finished CPU 6 instructions: 1000000 cycles: 2103761 cumulative IPC: 0.4753 (Simulation time: 00 hr 04 min 31 sec)
Warmup complete CPU 7 instructions: 8394185 cycles: 2103761 cumulative IPC: 3.99 (Simulation time: 00 hr 04 min 31 sec)
Warmup complete CPU 6 instructions: 1000000 cycles: 2103761 cumulative IPC: 0.4753 (Simulation time: 00 hr 04 min 31 sec)
Warmup complete CPU 5 instructions: 4876554 cycles: 2103761 cumulative IPC: 2.318 (Simulation time: 00 hr 04 min 31 sec)
Warmup complete CPU 4 instructions: 8394085 cycles: 2103761 cumulative IPC: 3.99 (Simulation time: 00 hr 04 min 31 sec)
Warmup complete CPU 3 instructions: 8393997 cycles: 2103761 cumulative IPC: 3.99 (Simulation time: 00 hr 04 min 31 sec)
Warmup complete CPU 2 instructions: 8394209 cycles: 2103761 cumulative IPC: 3.99 (Simulation time: 00 hr 04 min 31 sec)
Warmup complete CPU 1 instructions: 1005184 cycles: 2103761 cumulative IPC: 0.4778 (Simulation time: 00 hr 04 min 31 sec)
Warmup complete CPU 0 instructions: 4870289 cycles: 2103761 cumulative IPC: 2.315 (Simulation time: 00 hr 04 min 31 sec)
*** Reached end of trace: (5, "traces/canneal_big0.champsimtrace")
*** Reached end of trace: (0, "traces/canneal_big0.champsimtrace")
*** Reached end of trace: (2, "traces/canneal_big2.champsimtrace")
*** Reached end of trace: (7, "traces/canneal_big2.champsimtrace")
*** Reached end of trace: (4, "traces/canneal_big4.champsimtrace")
*** Reached end of trace: (3, "traces/canneal_big3.champsimtrace")
Heartbeat CPU 2 instructions: 10000001 cycles: 2505209 heartbeat IPC: 3.992 cumulative IPC: 4 (Simulation time: 00 hr 05 min 29 sec)
Heartbeat CPU 7 instructions: 10000001 cycles: 2505215 heartbeat IPC: 3.992 cumulative IPC: 4 (Simulation time: 00 hr 05 min 29 sec)
Heartbeat CPU 4 instructions: 10000001 cycles: 2505240 heartbeat IPC: 3.992 cumulative IPC: 4 (Simulation time: 00 hr 05 min 29 sec)
Heartbeat CPU 3 instructions: 10000001 cycles: 2505262 heartbeat IPC: 3.992 cumulative IPC: 4 (Simulation time: 00 hr 05 min 29 sec)
*** Reached end of trace: (2, "traces/canneal_big2.champsimtrace")
*** Reached end of trace: (7, "traces/canneal_big2.champsimtrace")
*** Reached end of trace: (4, "traces/canneal_big4.champsimtrace")
*** Reached end of trace: (3, "traces/canneal_big3.champsimtrace")
*** Reached end of trace: (0, "traces/canneal_big0.champsimtrace")
Heartbeat CPU 0 instructions: 10000003 cycles: 4566034 heartbeat IPC: 2.19 cumulative IPC: 2.083 (Simulation time: 00 hr 10 min 11 sec)
*** Reached end of trace: (5, "traces/canneal_big0.champsimtrace")
Heartbeat CPU 5 instructions: 10000003 cycles: 4609857 heartbeat IPC: 2.169 cumulative IPC: 2.044 (Simulation time: 00 hr 10 min 17 sec)
*** Reached end of trace: (2, "traces/canneal_big2.champsimtrace")
*** Reached end of trace: (7, "traces/canneal_big2.champsimtrace")
*** Reached end of trace: (4, "traces/canneal_big4.champsimtrace")
*** Reached end of trace: (3, "traces/canneal_big3.champsimtrace")
Heartbeat CPU 2 instructions: 20000001 cycles: 5005209 heartbeat IPC: 4 cumulative IPC: 4 (Simulation time: 00 hr 11 min 15 sec)
Heartbeat CPU 7 instructions: 20000001 cycles: 5005215 heartbeat IPC: 4 cumulative IPC: 4 (Simulation time: 00 hr 11 min 15 sec)
Heartbeat CPU 4 instructions: 20000001 cycles: 5005240 heartbeat IPC: 4 cumulative IPC: 4 (Simulation time: 00 hr 11 min 15 sec)
Heartbeat CPU 3 instructions: 20000001 cycles: 5005262 heartbeat IPC: 4 cumulative IPC: 4 (Simulation time: 00 hr 11 min 15 sec)
*** Reached end of trace: (2, "traces/canneal_big2.champsimtrace")
*** Reached end of trace: (7, "traces/canneal_big2.champsimtrace")
*** Reached end of trace: (4, "traces/canneal_big4.champsimtrace")
*** Reached end of trace: (3, "traces/canneal_big3.champsimtrace")
*** Reached end of trace: (0, "traces/canneal_big0.champsimtrace")
*** Reached end of trace: (5, "traces/canneal_big0.champsimtrace")
*** Reached end of trace: (2, "traces/canneal_big2.champsimtrace")
*** Reached end of trace: (7, "traces/canneal_big2.champsimtrace")
*** Reached end of trace: (4, "traces/canneal_big4.champsimtrace")
*** Reached end of trace: (3, "traces/canneal_big3.champsimtrace")
Heartbeat CPU 2 instructions: 30000001 cycles: 7505209 heartbeat IPC: 4 cumulative IPC: 4 (Simulation time: 00 hr 16 min 55 sec)
Heartbeat CPU 7 instructions: 30000001 cycles: 7505215 heartbeat IPC: 4 cumulative IPC: 4 (Simulation time: 00 hr 16 min 55 sec)
Heartbeat CPU 4 instructions: 30000001 cycles: 7505240 heartbeat IPC: 4 cumulative IPC: 4 (Simulation time: 00 hr 16 min 55 sec)
Heartbeat CPU 3 instructions: 30000001 cycles: 7505262 heartbeat IPC: 4 cumulative IPC: 4 (Simulation time: 00 hr 16 min 55 sec)
*** Reached end of trace: (2, "traces/canneal_big2.champsimtrace")
*** Reached end of trace: (7, "traces/canneal_big2.champsimtrace")
*** Reached end of trace: (4, "traces/canneal_big4.champsimtrace")
*** Reached end of trace: (3, "traces/canneal_big3.champsimtrace")
*** Reached end of trace: (0, "traces/canneal_big0.champsimtrace")
Heartbeat CPU 0 instructions: 20000006 cycles: 9356462 heartbeat IPC: 2.087 cumulative IPC: 2.086 (Simulation time: 00 hr 21 min 03 sec)
*** Reached end of trace: (5, "traces/canneal_big0.champsimtrace")
Heartbeat CPU 5 instructions: 20000006 cycles: 9470553 heartbeat IPC: 2.057 cumulative IPC: 2.053 (Simulation time: 00 hr 21 min 18 sec)
*** Reached end of trace: (2, "traces/canneal_big2.champsimtrace")
*** Reached end of trace: (7, "traces/canneal_big2.champsimtrace")
*** Reached end of trace: (4, "traces/canneal_big4.champsimtrace")
*** Reached end of trace: (3, "traces/canneal_big3.champsimtrace")
Heartbeat CPU 2 instructions: 40000001 cycles: 10005209 heartbeat IPC: 4 cumulative IPC: 4 (Simulation time: 00 hr 22 min 34 sec)
Heartbeat CPU 7 instructions: 40000001 cycles: 10005215 heartbeat IPC: 4 cumulative IPC: 4 (Simulation time: 00 hr 22 min 34 sec)
Heartbeat CPU 4 instructions: 40000001 cycles: 10005240 heartbeat IPC: 4 cumulative IPC: 4 (Simulation time: 00 hr 22 min 34 sec)
Heartbeat CPU 3 instructions: 40000001 cycles: 10005262 heartbeat IPC: 4 cumulative IPC: 4 (Simulation time: 00 hr 22 min 34 sec)
*** Reached end of trace: (2, "traces/canneal_big2.champsimtrace")
*** Reached end of trace: (7, "traces/canneal_big2.champsimtrace")
*** Reached end of trace: (4, "traces/canneal_big4.champsimtrace")
*** Reached end of trace: (3, "traces/canneal_big3.champsimtrace")
*** Reached end of trace: (0, "traces/canneal_big0.champsimtrace")
*** Reached end of trace: (5, "traces/canneal_big0.champsimtrace")
*** Reached end of trace: (2, "traces/canneal_big2.champsimtrace")
*** Reached end of trace: (7, "traces/canneal_big2.champsimtrace")
*** Reached end of trace: (4, "traces/canneal_big4.champsimtrace")
*** Reached end of trace: (3, "traces/canneal_big3.champsimtrace")
Heartbeat CPU 2 instructions: 50000001 cycles: 12505209 heartbeat IPC: 4 cumulative IPC: 4 (Simulation time: 00 hr 28 min 17 sec)
Heartbeat CPU 7 instructions: 50000001 cycles: 12505215 heartbeat IPC: 4 cumulative IPC: 4 (Simulation time: 00 hr 28 min 17 sec)
Heartbeat CPU 4 instructions: 50000001 cycles: 12505240 heartbeat IPC: 4 cumulative IPC: 4 (Simulation time: 00 hr 28 min 17 sec)
Heartbeat CPU 3 instructions: 50000001 cycles: 12505262 heartbeat IPC: 4 cumulative IPC: 4 (Simulation time: 00 hr 28 min 17 sec)
*** Reached end of trace: (2, "traces/canneal_big2.champsimtrace")
*** Reached end of trace: (7, "traces/canneal_big2.champsimtrace")
*** Reached end of trace: (4, "traces/canneal_big4.champsimtrace")
*** Reached end of trace: (3, "traces/canneal_big3.champsimtrace")
*** Reached end of trace: (0, "traces/canneal_big0.champsimtrace")
Heartbeat CPU 0 instructions: 30000009 cycles: 14125120 heartbeat IPC: 2.097 cumulative IPC: 2.09 (Simulation time: 00 hr 31 min 52 sec)
*** Reached end of trace: (5, "traces/canneal_big0.champsimtrace")
Heartbeat CPU 5 instructions: 30000009 cycles: 14304694 heartbeat IPC: 2.069 cumulative IPC: 2.059 (Simulation time: 00 hr 32 min 17 sec)
*** Reached end of trace: (2, "traces/canneal_big2.champsimtrace")
*** Reached end of trace: (7, "traces/canneal_big2.champsimtrace")
*** Reached end of trace: (4, "traces/canneal_big4.champsimtrace")
*** Reached end of trace: (3, "traces/canneal_big3.champsimtrace")
Heartbeat CPU 2 instructions: 60000001 cycles: 15005209 heartbeat IPC: 4 cumulative IPC: 4 (Simulation time: 00 hr 33 min 57 sec)
Heartbeat CPU 7 instructions: 60000001 cycles: 15005215 heartbeat IPC: 4 cumulative IPC: 4 (Simulation time: 00 hr 33 min 57 sec)
Heartbeat CPU 4 instructions: 60000001 cycles: 15005240 heartbeat IPC: 4 cumulative IPC: 4 (Simulation time: 00 hr 33 min 57 sec)
Heartbeat CPU 3 instructions: 60000001 cycles: 15005262 heartbeat IPC: 4 cumulative IPC: 4 (Simulation time: 00 hr 33 min 57 sec)
*** Reached end of trace: (2, "traces/canneal_big2.champsimtrace")
*** Reached end of trace: (7, "traces/canneal_big2.champsimtrace")
*** Reached end of trace: (4, "traces/canneal_big4.champsimtrace")
*** Reached end of trace: (3, "traces/canneal_big3.champsimtrace")
*** Reached end of trace: (0, "traces/canneal_big0.champsimtrace")
*** Reached end of trace: (5, "traces/canneal_big0.champsimtrace")
*** Reached end of trace: (2, "traces/canneal_big2.champsimtrace")
*** Reached end of trace: (7, "traces/canneal_big2.champsimtrace")
*** Reached end of trace: (4, "traces/canneal_big4.champsimtrace")
*** Reached end of trace: (3, "traces/canneal_big3.champsimtrace")
Heartbeat CPU 2 instructions: 70000001 cycles: 17505209 heartbeat IPC: 4 cumulative IPC: 4 (Simulation time: 00 hr 39 min 42 sec)
Heartbeat CPU 7 instructions: 70000001 cycles: 17505215 heartbeat IPC: 4 cumulative IPC: 4 (Simulation time: 00 hr 39 min 42 sec)
Heartbeat CPU 4 instructions: 70000001 cycles: 17505240 heartbeat IPC: 4 cumulative IPC: 4 (Simulation time: 00 hr 39 min 42 sec)
Heartbeat CPU 3 instructions: 70000001 cycles: 17505262 heartbeat IPC: 4 cumulative IPC: 4 (Simulation time: 00 hr 39 min 42 sec)
*** Reached end of trace: (2, "traces/canneal_big2.champsimtrace")
*** Reached end of trace: (7, "traces/canneal_big2.champsimtrace")
*** Reached end of trace: (4, "traces/canneal_big4.champsimtrace")
*** Reached end of trace: (3, "traces/canneal_big3.champsimtrace")
*** Reached end of trace: (0, "traces/canneal_big0.champsimtrace")
Heartbeat CPU 0 instructions: 40000012 cycles: 18896741 heartbeat IPC: 2.096 cumulative IPC: 2.092 (Simulation time: 00 hr 42 min 48 sec)
*** Reached end of trace: (5, "traces/canneal_big0.champsimtrace")
Heartbeat CPU 5 instructions: 40000012 cycles: 19127690 heartbeat IPC: 2.073 cumulative IPC: 2.063 (Simulation time: 00 hr 43 min 20 sec)
*** Reached end of trace: (2, "traces/canneal_big2.champsimtrace")
*** Reached end of trace: (7, "traces/canneal_big2.champsimtrace")
*** Reached end of trace: (4, "traces/canneal_big4.champsimtrace")
*** Reached end of trace: (3, "traces/canneal_big3.champsimtrace")
Heartbeat CPU 2 instructions: 80000001 cycles: 20005209 heartbeat IPC: 4 cumulative IPC: 4 (Simulation time: 00 hr 45 min 24 sec)
Heartbeat CPU 7 instructions: 80000001 cycles: 20005215 heartbeat IPC: 4 cumulative IPC: 4 (Simulation time: 00 hr 45 min 24 sec)
Heartbeat CPU 4 instructions: 80000001 cycles: 20005240 heartbeat IPC: 4 cumulative IPC: 4 (Simulation time: 00 hr 45 min 24 sec)
Heartbeat CPU 3 instructions: 80000001 cycles: 20005262 heartbeat IPC: 4 cumulative IPC: 4 (Simulation time: 00 hr 45 min 24 sec)
*** Reached end of trace: (2, "traces/canneal_big2.champsimtrace")
*** Reached end of trace: (7, "traces/canneal_big2.champsimtrace")
*** Reached end of trace: (4, "traces/canneal_big4.champsimtrace")
*** Reached end of trace: (3, "traces/canneal_big3.champsimtrace")
*** Reached end of trace: (0, "traces/canneal_big0.champsimtrace")
*** Reached end of trace: (5, "traces/canneal_big0.champsimtrace")
*** Reached end of trace: (2, "traces/canneal_big2.champsimtrace")
*** Reached end of trace: (7, "traces/canneal_big2.champsimtrace")
*** Reached end of trace: (4, "traces/canneal_big4.champsimtrace")
*** Reached end of trace: (3, "traces/canneal_big3.champsimtrace")
Heartbeat CPU 2 instructions: 90000001 cycles: 22505209 heartbeat IPC: 4 cumulative IPC: 4 (Simulation time: 00 hr 51 min 06 sec)
Heartbeat CPU 7 instructions: 90000001 cycles: 22505215 heartbeat IPC: 4 cumulative IPC: 4 (Simulation time: 00 hr 51 min 06 sec)
Heartbeat CPU 4 instructions: 90000001 cycles: 22505240 heartbeat IPC: 4 cumulative IPC: 4 (Simulation time: 00 hr 51 min 06 sec)
Heartbeat CPU 3 instructions: 90000001 cycles: 22505262 heartbeat IPC: 4 cumulative IPC: 4 (Simulation time: 00 hr 51 min 06 sec)
*** Reached end of trace: (0, "traces/canneal_big0.champsimtrace")
Heartbeat CPU 0 instructions: 50000015 cycles: 23642552 heartbeat IPC: 2.107 cumulative IPC: 2.095 (Simulation time: 00 hr 53 min 39 sec)
*** Reached end of trace: (2, "traces/canneal_big2.champsimtrace")
*** Reached end of trace: (7, "traces/canneal_big2.champsimtrace")
*** Reached end of trace: (4, "traces/canneal_big4.champsimtrace")
*** Reached end of trace: (3, "traces/canneal_big3.champsimtrace")
*** Reached end of trace: (5, "traces/canneal_big0.champsimtrace")
Heartbeat CPU 5 instructions: 50000015 cycles: 23953278 heartbeat IPC: 2.072 cumulative IPC: 2.065 (Simulation time: 00 hr 54 min 23 sec)
*** Reached end of trace: (2, "traces/canneal_big2.champsimtrace")
*** Reached end of trace: (7, "traces/canneal_big2.champsimtrace")
*** Reached end of trace: (4, "traces/canneal_big4.champsimtrace")
*** Reached end of trace: (3, "traces/canneal_big3.champsimtrace")
Heartbeat CPU 2 instructions: 100000001 cycles: 25005209 heartbeat IPC: 4 cumulative IPC: 4 (Simulation time: 00 hr 56 min 51 sec)
Heartbeat CPU 7 instructions: 100000001 cycles: 25005215 heartbeat IPC: 4 cumulative IPC: 4 (Simulation time: 00 hr 56 min 51 sec)
Heartbeat CPU 4 instructions: 100000001 cycles: 25005240 heartbeat IPC: 4 cumulative IPC: 4 (Simulation time: 00 hr 56 min 51 sec)
Heartbeat CPU 3 instructions: 100000001 cycles: 25005262 heartbeat IPC: 4 cumulative IPC: 4 (Simulation time: 00 hr 56 min 51 sec)
*** Reached end of trace: (0, "traces/canneal_big0.champsimtrace")
*** Reached end of trace: (2, "traces/canneal_big2.champsimtrace")
*** Reached end of trace: (7, "traces/canneal_big2.champsimtrace")
*** Reached end of trace: (4, "traces/canneal_big4.champsimtrace")
*** Reached end of trace: (3, "traces/canneal_big3.champsimtrace")
*** Reached end of trace: (5, "traces/canneal_big0.champsimtrace")
*** Reached end of trace: (1, "traces/canneal_big1.champsimtrace")
*** Reached end of trace: (6, "traces/canneal_big1.champsimtrace")
Simulation finished CPU 7 instructions: 100000000 cycles: 25000000 cumulative IPC: 4 (Simulation time: 01 hr 01 min 42 sec)
Simulation finished CPU 4 instructions: 100000000 cycles: 25000000 cumulative IPC: 4 (Simulation time: 01 hr 01 min 42 sec)
Simulation finished CPU 3 instructions: 100000000 cycles: 25000000 cumulative IPC: 4 (Simulation time: 01 hr 01 min 42 sec)
Simulation finished CPU 2 instructions: 100000000 cycles: 25000000 cumulative IPC: 4 (Simulation time: 01 hr 01 min 42 sec)
*** Reached end of trace: (2, "traces/canneal_big2.champsimtrace")
*** Reached end of trace: (7, "traces/canneal_big2.champsimtrace")
*** Reached end of trace: (4, "traces/canneal_big4.champsimtrace")
*** Reached end of trace: (3, "traces/canneal_big3.champsimtrace")
Heartbeat CPU 2 instructions: 110000001 cycles: 27505209 heartbeat IPC: 4 cumulative IPC: 4 (Simulation time: 01 hr 02 min 38 sec)
Heartbeat CPU 7 instructions: 110000001 cycles: 27505215 heartbeat IPC: 4 cumulative IPC: 4 (Simulation time: 01 hr 02 min 38 sec)
Heartbeat CPU 4 instructions: 110000001 cycles: 27505240 heartbeat IPC: 4 cumulative IPC: 4 (Simulation time: 01 hr 02 min 38 sec)
Heartbeat CPU 3 instructions: 110000001 cycles: 27505262 heartbeat IPC: 4 cumulative IPC: 4 (Simulation time: 01 hr 02 min 38 sec)
*** Reached end of trace: (0, "traces/canneal_big0.champsimtrace")
Heartbeat CPU 0 instructions: 60000018 cycles: 28381581 heartbeat IPC: 2.11 cumulative IPC: 2.098 (Simulation time: 01 hr 04 min 36 sec)
*** Reached end of trace: (2, "traces/canneal_big2.champsimtrace")
*** Reached end of trace: (7, "traces/canneal_big2.champsimtrace")
*** Reached end of trace: (4, "traces/canneal_big4.champsimtrace")
*** Reached end of trace: (3, "traces/canneal_big3.champsimtrace")
*** Reached end of trace: (5, "traces/canneal_big0.champsimtrace")
Heartbeat CPU 5 instructions: 60000018 cycles: 28789942 heartbeat IPC: 2.068 cumulative IPC: 2.066 (Simulation time: 01 hr 05 min 34 sec)
*** Reached end of trace: (2, "traces/canneal_big2.champsimtrace")
*** Reached end of trace: (7, "traces/canneal_big2.champsimtrace")
*** Reached end of trace: (4, "traces/canneal_big4.champsimtrace")
*** Reached end of trace: (3, "traces/canneal_big3.champsimtrace")
Heartbeat CPU 2 instructions: 120000001 cycles: 30005209 heartbeat IPC: 4 cumulative IPC: 4 (Simulation time: 01 hr 08 min 23 sec)
Heartbeat CPU 7 instructions: 120000001 cycles: 30005215 heartbeat IPC: 4 cumulative IPC: 4 (Simulation time: 01 hr 08 min 23 sec)
Heartbeat CPU 4 instructions: 120000001 cycles: 30005240 heartbeat IPC: 4 cumulative IPC: 4 (Simulation time: 01 hr 08 min 23 sec)
Heartbeat CPU 3 instructions: 120000001 cycles: 30005262 heartbeat IPC: 4 cumulative IPC: 4 (Simulation time: 01 hr 08 min 23 sec)
*** Reached end of trace: (0, "traces/canneal_big0.champsimtrace")
*** Reached end of trace: (5, "traces/canneal_big0.champsimtrace")
*** Reached end of trace: (2, "traces/canneal_big2.champsimtrace")
*** Reached end of trace: (7, "traces/canneal_big2.champsimtrace")
*** Reached end of trace: (4, "traces/canneal_big4.champsimtrace")
*** Reached end of trace: (3, "traces/canneal_big3.champsimtrace")
*** Reached end of trace: (2, "traces/canneal_big2.champsimtrace")
*** Reached end of trace: (7, "traces/canneal_big2.champsimtrace")
*** Reached end of trace: (4, "traces/canneal_big4.champsimtrace")
*** Reached end of trace: (3, "traces/canneal_big3.champsimtrace")
Heartbeat CPU 2 instructions: 130000001 cycles: 32505209 heartbeat IPC: 4 cumulative IPC: 4 (Simulation time: 01 hr 14 min 06 sec)
Heartbeat CPU 7 instructions: 130000001 cycles: 32505215 heartbeat IPC: 4 cumulative IPC: 4 (Simulation time: 01 hr 14 min 06 sec)
Heartbeat CPU 4 instructions: 130000001 cycles: 32505240 heartbeat IPC: 4 cumulative IPC: 4 (Simulation time: 01 hr 14 min 06 sec)
Heartbeat CPU 3 instructions: 130000001 cycles: 32505262 heartbeat IPC: 4 cumulative IPC: 4 (Simulation time: 01 hr 14 min 06 sec)
*** Reached end of trace: (0, "traces/canneal_big0.champsimtrace")
Heartbeat CPU 0 instructions: 70000021 cycles: 33102987 heartbeat IPC: 2.118 cumulative IPC: 2.101 (Simulation time: 01 hr 15 min 26 sec)
*** Reached end of trace: (5, "traces/canneal_big0.champsimtrace")
Heartbeat CPU 5 instructions: 70000021 cycles: 33646260 heartbeat IPC: 2.059 cumulative IPC: 2.065 (Simulation time: 01 hr 16 min 42 sec)
*** Reached end of trace: (2, "traces/canneal_big2.champsimtrace")
*** Reached end of trace: (7, "traces/canneal_big2.champsimtrace")
*** Reached end of trace: (4, "traces/canneal_big4.champsimtrace")
*** Reached end of trace: (3, "traces/canneal_big3.champsimtrace")
*** Reached end of trace: (2, "traces/canneal_big2.champsimtrace")
*** Reached end of trace: (7, "traces/canneal_big2.champsimtrace")
*** Reached end of trace: (4, "traces/canneal_big4.champsimtrace")
*** Reached end of trace: (3, "traces/canneal_big3.champsimtrace")
Heartbeat CPU 2 instructions: 140000001 cycles: 35005209 heartbeat IPC: 4 cumulative IPC: 4 (Simulation time: 01 hr 19 min 48 sec)
Heartbeat CPU 7 instructions: 140000001 cycles: 35005215 heartbeat IPC: 4 cumulative IPC: 4 (Simulation time: 01 hr 19 min 48 sec)
Heartbeat CPU 4 instructions: 140000001 cycles: 35005240 heartbeat IPC: 4 cumulative IPC: 4 (Simulation time: 01 hr 19 min 48 sec)
Heartbeat CPU 3 instructions: 140000001 cycles: 35005262 heartbeat IPC: 4 cumulative IPC: 4 (Simulation time: 01 hr 19 min 48 sec)
*** Reached end of trace: (0, "traces/canneal_big0.champsimtrace")
*** Reached end of trace: (5, "traces/canneal_big0.champsimtrace")
*** Reached end of trace: (2, "traces/canneal_big2.champsimtrace")
*** Reached end of trace: (7, "traces/canneal_big2.champsimtrace")
*** Reached end of trace: (4, "traces/canneal_big4.champsimtrace")
*** Reached end of trace: (3, "traces/canneal_big3.champsimtrace")
*** Reached end of trace: (2, "traces/canneal_big2.champsimtrace")
*** Reached end of trace: (7, "traces/canneal_big2.champsimtrace")
*** Reached end of trace: (4, "traces/canneal_big4.champsimtrace")
*** Reached end of trace: (3, "traces/canneal_big3.champsimtrace")
Heartbeat CPU 2 instructions: 150000001 cycles: 37505209 heartbeat IPC: 4 cumulative IPC: 4 (Simulation time: 01 hr 25 min 30 sec)
Heartbeat CPU 7 instructions: 150000001 cycles: 37505215 heartbeat IPC: 4 cumulative IPC: 4 (Simulation time: 01 hr 25 min 30 sec)
Heartbeat CPU 4 instructions: 150000001 cycles: 37505240 heartbeat IPC: 4 cumulative IPC: 4 (Simulation time: 01 hr 25 min 30 sec)
Heartbeat CPU 3 instructions: 150000001 cycles: 37505262 heartbeat IPC: 4 cumulative IPC: 4 (Simulation time: 01 hr 25 min 30 sec)
*** Reached end of trace: (0, "traces/canneal_big0.champsimtrace")
Heartbeat CPU 0 instructions: 80000021 cycles: 37782910 heartbeat IPC: 2.137 cumulative IPC: 2.106 (Simulation time: 01 hr 26 min 08 sec)
*** Reached end of trace: (5, "traces/canneal_big0.champsimtrace")
Heartbeat CPU 5 instructions: 80000024 cycles: 38478246 heartbeat IPC: 2.07 cumulative IPC: 2.065 (Simulation time: 01 hr 27 min 44 sec)
*** Reached end of trace: (2, "traces/canneal_big2.champsimtrace")
*** Reached end of trace: (7, "traces/canneal_big2.champsimtrace")
*** Reached end of trace: (4, "traces/canneal_big4.champsimtrace")
*** Reached end of trace: (3, "traces/canneal_big3.champsimtrace")
*** Reached end of trace: (2, "traces/canneal_big2.champsimtrace")
*** Reached end of trace: (7, "traces/canneal_big2.champsimtrace")
*** Reached end of trace: (4, "traces/canneal_big4.champsimtrace")
*** Reached end of trace: (3, "traces/canneal_big3.champsimtrace")
Heartbeat CPU 2 instructions: 160000001 cycles: 40005209 heartbeat IPC: 4 cumulative IPC: 4 (Simulation time: 01 hr 31 min 13 sec)
Heartbeat CPU 7 instructions: 160000001 cycles: 40005215 heartbeat IPC: 4 cumulative IPC: 4 (Simulation time: 01 hr 31 min 13 sec)
Heartbeat CPU 4 instructions: 160000001 cycles: 40005240 heartbeat IPC: 4 cumulative IPC: 4 (Simulation time: 01 hr 31 min 13 sec)
Heartbeat CPU 3 instructions: 160000001 cycles: 40005262 heartbeat IPC: 4 cumulative IPC: 4 (Simulation time: 01 hr 31 min 13 sec)
*** Reached end of trace: (0, "traces/canneal_big0.champsimtrace")
*** Reached end of trace: (5, "traces/canneal_big0.champsimtrace")
*** Reached end of trace: (2, "traces/canneal_big2.champsimtrace")
*** Reached end of trace: (7, "traces/canneal_big2.champsimtrace")
*** Reached end of trace: (4, "traces/canneal_big4.champsimtrace")
*** Reached end of trace: (3, "traces/canneal_big3.champsimtrace")
*** Reached end of trace: (0, "traces/canneal_big0.champsimtrace")
Heartbeat CPU 0 instructions: 90000024 cycles: 42404567 heartbeat IPC: 2.164 cumulative IPC: 2.112 (Simulation time: 01 hr 36 min 42 sec)
*** Reached end of trace: (2, "traces/canneal_big2.champsimtrace")
*** Reached end of trace: (7, "traces/canneal_big2.champsimtrace")
*** Reached end of trace: (4, "traces/canneal_big4.champsimtrace")
*** Reached end of trace: (3, "traces/canneal_big3.champsimtrace")
Heartbeat CPU 2 instructions: 170000001 cycles: 42505209 heartbeat IPC: 4 cumulative IPC: 4 (Simulation time: 01 hr 36 min 55 sec)
Heartbeat CPU 7 instructions: 170000001 cycles: 42505215 heartbeat IPC: 4 cumulative IPC: 4 (Simulation time: 01 hr 36 min 55 sec)
Heartbeat CPU 4 instructions: 170000001 cycles: 42505240 heartbeat IPC: 4 cumulative IPC: 4 (Simulation time: 01 hr 36 min 55 sec)
Heartbeat CPU 3 instructions: 170000001 cycles: 42505262 heartbeat IPC: 4 cumulative IPC: 4 (Simulation time: 01 hr 36 min 55 sec)
*** Reached end of trace: (5, "traces/canneal_big0.champsimtrace")
Heartbeat CPU 5 instructions: 90000027 cycles: 43279532 heartbeat IPC: 2.083 cumulative IPC: 2.067 (Simulation time: 01 hr 38 min 42 sec)
*** Reached end of trace: (2, "traces/canneal_big2.champsimtrace")
*** Reached end of trace: (7, "traces/canneal_big2.champsimtrace")
*** Reached end of trace: (4, "traces/canneal_big4.champsimtrace")
*** Reached end of trace: (3, "traces/canneal_big3.champsimtrace")
*** Reached end of trace: (0, "traces/canneal_big0.champsimtrace")
*** Reached end of trace: (2, "traces/canneal_big2.champsimtrace")
*** Reached end of trace: (7, "traces/canneal_big2.champsimtrace")
*** Reached end of trace: (4, "traces/canneal_big4.champsimtrace")
*** Reached end of trace: (3, "traces/canneal_big3.champsimtrace")
Heartbeat CPU 2 instructions: 180000001 cycles: 45005209 heartbeat IPC: 4 cumulative IPC: 4 (Simulation time: 01 hr 42 min 39 sec)
Heartbeat CPU 7 instructions: 180000001 cycles: 45005215 heartbeat IPC: 4 cumulative IPC: 4 (Simulation time: 01 hr 42 min 39 sec)
Heartbeat CPU 4 instructions: 180000001 cycles: 45005240 heartbeat IPC: 4 cumulative IPC: 4 (Simulation time: 01 hr 42 min 39 sec)
Heartbeat CPU 3 instructions: 180000001 cycles: 45005262 heartbeat IPC: 4 cumulative IPC: 4 (Simulation time: 01 hr 42 min 39 sec)
*** Reached end of trace: (5, "traces/canneal_big0.champsimtrace")
*** Reached end of trace: (2, "traces/canneal_big2.champsimtrace")
*** Reached end of trace: (7, "traces/canneal_big2.champsimtrace")
*** Reached end of trace: (4, "traces/canneal_big4.champsimtrace")
*** Reached end of trace: (3, "traces/canneal_big3.champsimtrace")
*** Reached end of trace: (0, "traces/canneal_big0.champsimtrace")
Heartbeat CPU 0 instructions: 100000025 cycles: 47032781 heartbeat IPC: 2.161 cumulative IPC: 2.117 (Simulation time: 01 hr 47 min 16 sec)
*** Reached end of trace: (2, "traces/canneal_big2.champsimtrace")
*** Reached end of trace: (7, "traces/canneal_big2.champsimtrace")
*** Reached end of trace: (4, "traces/canneal_big4.champsimtrace")
*** Reached end of trace: (3, "traces/canneal_big3.champsimtrace")
Heartbeat CPU 2 instructions: 190000001 cycles: 47505209 heartbeat IPC: 4 cumulative IPC: 4 (Simulation time: 01 hr 48 min 23 sec)
Heartbeat CPU 7 instructions: 190000001 cycles: 47505215 heartbeat IPC: 4 cumulative IPC: 4 (Simulation time: 01 hr 48 min 23 sec)
Heartbeat CPU 4 instructions: 190000001 cycles: 47505240 heartbeat IPC: 4 cumulative IPC: 4 (Simulation time: 01 hr 48 min 23 sec)
Heartbeat CPU 3 instructions: 190000001 cycles: 47505262 heartbeat IPC: 4 cumulative IPC: 4 (Simulation time: 01 hr 48 min 23 sec)
*** Reached end of trace: (5, "traces/canneal_big0.champsimtrace")
Heartbeat CPU 5 instructions: 100000027 cycles: 48041851 heartbeat IPC: 2.1 cumulative IPC: 2.071 (Simulation time: 01 hr 49 min 35 sec)
*** Reached end of trace: (2, "traces/canneal_big2.champsimtrace")
*** Reached end of trace: (7, "traces/canneal_big2.champsimtrace")
*** Reached end of trace: (4, "traces/canneal_big4.champsimtrace")
*** Reached end of trace: (3, "traces/canneal_big3.champsimtrace")
Simulation finished CPU 0 instructions: 100000000 cycles: 47163912 cumulative IPC: 2.12 (Simulation time: 01 hr 52 min 24 sec)
*** Reached end of trace: (0, "traces/canneal_big0.champsimtrace")
*** Reached end of trace: (2, "traces/canneal_big2.champsimtrace")
*** Reached end of trace: (7, "traces/canneal_big2.champsimtrace")
*** Reached end of trace: (4, "traces/canneal_big4.champsimtrace")
*** Reached end of trace: (3, "traces/canneal_big3.champsimtrace")
Heartbeat CPU 2 instructions: 200000001 cycles: 50005209 heartbeat IPC: 4 cumulative IPC: 4 (Simulation time: 01 hr 54 min 06 sec)
Heartbeat CPU 7 instructions: 200000001 cycles: 50005215 heartbeat IPC: 4 cumulative IPC: 4 (Simulation time: 01 hr 54 min 06 sec)
Heartbeat CPU 4 instructions: 200000001 cycles: 50005240 heartbeat IPC: 4 cumulative IPC: 4 (Simulation time: 01 hr 54 min 06 sec)
Heartbeat CPU 3 instructions: 200000001 cycles: 50005262 heartbeat IPC: 4 cumulative IPC: 4 (Simulation time: 01 hr 54 min 06 sec)
Simulation finished CPU 5 instructions: 100000000 cycles: 48233181 cumulative IPC: 2.073 (Simulation time: 01 hr 54 min 51 sec)
*** Reached end of trace: (5, "traces/canneal_big0.champsimtrace")
*** Reached end of trace: (2, "traces/canneal_big2.champsimtrace")
*** Reached end of trace: (7, "traces/canneal_big2.champsimtrace")
*** Reached end of trace: (4, "traces/canneal_big4.champsimtrace")
*** Reached end of trace: (3, "traces/canneal_big3.champsimtrace")
*** Reached end of trace: (0, "traces/canneal_big0.champsimtrace")
Heartbeat CPU 0 instructions: 110000028 cycles: 51641782 heartbeat IPC: 2.17 cumulative IPC: 2.122 (Simulation time: 01 hr 57 min 49 sec)
*** Reached end of trace: (2, "traces/canneal_big2.champsimtrace")
*** Reached end of trace: (7, "traces/canneal_big2.champsimtrace")
*** Reached end of trace: (4, "traces/canneal_big4.champsimtrace")
*** Reached end of trace: (3, "traces/canneal_big3.champsimtrace")
Heartbeat CPU 2 instructions: 210000001 cycles: 52505209 heartbeat IPC: 4 cumulative IPC: 4 (Simulation time: 01 hr 59 min 50 sec)
Heartbeat CPU 7 instructions: 210000001 cycles: 52505215 heartbeat IPC: 4 cumulative IPC: 4 (Simulation time: 01 hr 59 min 50 sec)
Heartbeat CPU 4 instructions: 210000001 cycles: 52505240 heartbeat IPC: 4 cumulative IPC: 4 (Simulation time: 01 hr 59 min 50 sec)
Heartbeat CPU 3 instructions: 210000001 cycles: 52505262 heartbeat IPC: 4 cumulative IPC: 4 (Simulation time: 01 hr 59 min 50 sec)
*** Reached end of trace: (5, "traces/canneal_big0.champsimtrace")
Heartbeat CPU 5 instructions: 110000028 cycles: 52768723 heartbeat IPC: 2.116 cumulative IPC: 2.075 (Simulation time: 02 hr 00 min 27 sec)
*** Reached end of trace: (2, "traces/canneal_big2.champsimtrace")
*** Reached end of trace: (7, "traces/canneal_big2.champsimtrace")
*** Reached end of trace: (4, "traces/canneal_big4.champsimtrace")
*** Reached end of trace: (3, "traces/canneal_big3.champsimtrace")
*** Reached end of trace: (0, "traces/canneal_big0.champsimtrace")
*** Reached end of trace: (2, "traces/canneal_big2.champsimtrace")
*** Reached end of trace: (7, "traces/canneal_big2.champsimtrace")
*** Reached end of trace: (4, "traces/canneal_big4.champsimtrace")
*** Reached end of trace: (3, "traces/canneal_big3.champsimtrace")
Heartbeat CPU 2 instructions: 220000001 cycles: 55005209 heartbeat IPC: 4 cumulative IPC: 4 (Simulation time: 02 hr 05 min 37 sec)
Heartbeat CPU 7 instructions: 220000001 cycles: 55005215 heartbeat IPC: 4 cumulative IPC: 4 (Simulation time: 02 hr 05 min 37 sec)
Heartbeat CPU 4 instructions: 220000001 cycles: 55005240 heartbeat IPC: 4 cumulative IPC: 4 (Simulation time: 02 hr 05 min 37 sec)
Heartbeat CPU 3 instructions: 220000001 cycles: 55005262 heartbeat IPC: 4 cumulative IPC: 4 (Simulation time: 02 hr 05 min 37 sec)
*** Reached end of trace: (5, "traces/canneal_big0.champsimtrace")
*** Reached end of trace: (2, "traces/canneal_big2.champsimtrace")
*** Reached end of trace: (7, "traces/canneal_big2.champsimtrace")
*** Reached end of trace: (4, "traces/canneal_big4.champsimtrace")
*** Reached end of trace: (3, "traces/canneal_big3.champsimtrace")
*** Reached end of trace: (0, "traces/canneal_big0.champsimtrace")
Heartbeat CPU 0 instructions: 120000031 cycles: 56294391 heartbeat IPC: 2.149 cumulative IPC: 2.125 (Simulation time: 02 hr 08 min 35 sec)
*** Reached end of trace: (5, "traces/canneal_big0.champsimtrace")
Heartbeat CPU 5 instructions: 120000028 cycles: 57500230 heartbeat IPC: 2.113 cumulative IPC: 2.078 (Simulation time: 02 hr 11 min 20 sec)
*** Reached end of trace: (2, "traces/canneal_big2.champsimtrace")
*** Reached end of trace: (7, "traces/canneal_big2.champsimtrace")
*** Reached end of trace: (4, "traces/canneal_big4.champsimtrace")
*** Reached end of trace: (3, "traces/canneal_big3.champsimtrace")
Heartbeat CPU 2 instructions: 230000001 cycles: 57505209 heartbeat IPC: 4 cumulative IPC: 4 (Simulation time: 02 hr 11 min 21 sec)
Heartbeat CPU 7 instructions: 230000001 cycles: 57505215 heartbeat IPC: 4 cumulative IPC: 4 (Simulation time: 02 hr 11 min 21 sec)
Heartbeat CPU 4 instructions: 230000001 cycles: 57505240 heartbeat IPC: 4 cumulative IPC: 4 (Simulation time: 02 hr 11 min 21 sec)
Heartbeat CPU 3 instructions: 230000001 cycles: 57505262 heartbeat IPC: 4 cumulative IPC: 4 (Simulation time: 02 hr 11 min 21 sec)
*** Reached end of trace: (1, "traces/canneal_big1.champsimtrace")
Heartbeat CPU 1 instructions: 10000002 cycles: 57853170 heartbeat IPC: 0.1729 cumulative IPC: 0.1613 (Simulation time: 02 hr 12 min 10 sec)
*** Reached end of trace: (6, "traces/canneal_big1.champsimtrace")
Heartbeat CPU 6 instructions: 10000002 cycles: 58031526 heartbeat IPC: 0.1723 cumulative IPC: 0.1609 (Simulation time: 02 hr 12 min 35 sec)
*** Reached end of trace: (0, "traces/canneal_big0.champsimtrace")
*** Reached end of trace: (2, "traces/canneal_big2.champsimtrace")
*** Reached end of trace: (7, "traces/canneal_big2.champsimtrace")
*** Reached end of trace: (4, "traces/canneal_big4.champsimtrace")
*** Reached end of trace: (3, "traces/canneal_big3.champsimtrace")
*** Reached end of trace: (5, "traces/canneal_big0.champsimtrace")
*** Reached end of trace: (2, "traces/canneal_big2.champsimtrace")
*** Reached end of trace: (7, "traces/canneal_big2.champsimtrace")
*** Reached end of trace: (4, "traces/canneal_big4.champsimtrace")
*** Reached end of trace: (3, "traces/canneal_big3.champsimtrace")
Heartbeat CPU 2 instructions: 240000001 cycles: 60005209 heartbeat IPC: 4 cumulative IPC: 4 (Simulation time: 02 hr 17 min 05 sec)
Heartbeat CPU 7 instructions: 240000001 cycles: 60005215 heartbeat IPC: 4 cumulative IPC: 4 (Simulation time: 02 hr 17 min 05 sec)
Heartbeat CPU 4 instructions: 240000001 cycles: 60005240 heartbeat IPC: 4 cumulative IPC: 4 (Simulation time: 02 hr 17 min 05 sec)
Heartbeat CPU 3 instructions: 240000001 cycles: 60005262 heartbeat IPC: 4 cumulative IPC: 4 (Simulation time: 02 hr 17 min 05 sec)
*** Reached end of trace: (0, "traces/canneal_big0.champsimtrace")
Heartbeat CPU 0 instructions: 130000034 cycles: 60958399 heartbeat IPC: 2.144 cumulative IPC: 2.126 (Simulation time: 02 hr 19 min 16 sec)
*** Reached end of trace: (2, "traces/canneal_big2.champsimtrace")
*** Reached end of trace: (7, "traces/canneal_big2.champsimtrace")
*** Reached end of trace: (4, "traces/canneal_big4.champsimtrace")
*** Reached end of trace: (3, "traces/canneal_big3.champsimtrace")
*** Reached end of trace: (5, "traces/canneal_big0.champsimtrace")
Heartbeat CPU 5 instructions: 130000029 cycles: 62247399 heartbeat IPC: 2.107 cumulative IPC: 2.08 (Simulation time: 02 hr 22 min 12 sec)
*** Reached end of trace: (2, "traces/canneal_big2.champsimtrace")
*** Reached end of trace: (7, "traces/canneal_big2.champsimtrace")
*** Reached end of trace: (4, "traces/canneal_big4.champsimtrace")
*** Reached end of trace: (3, "traces/canneal_big3.champsimtrace")
Heartbeat CPU 2 instructions: 250000001 cycles: 62505209 heartbeat IPC: 4 cumulative IPC: 4 (Simulation time: 02 hr 22 min 48 sec)
Heartbeat CPU 7 instructions: 250000001 cycles: 62505215 heartbeat IPC: 4 cumulative IPC: 4 (Simulation time: 02 hr 22 min 48 sec)
Heartbeat CPU 4 instructions: 250000001 cycles: 62505240 heartbeat IPC: 4 cumulative IPC: 4 (Simulation time: 02 hr 22 min 48 sec)
Heartbeat CPU 3 instructions: 250000001 cycles: 62505262 heartbeat IPC: 4 cumulative IPC: 4 (Simulation time: 02 hr 22 min 48 sec)
*** Reached end of trace: (0, "traces/canneal_big0.champsimtrace")
*** Reached end of trace: (2, "traces/canneal_big2.champsimtrace")
*** Reached end of trace: (7, "traces/canneal_big2.champsimtrace")
*** Reached end of trace: (4, "traces/canneal_big4.champsimtrace")
*** Reached end of trace: (3, "traces/canneal_big3.champsimtrace")
*** Reached end of trace: (5, "traces/canneal_big0.champsimtrace")
*** Reached end of trace: (2, "traces/canneal_big2.champsimtrace")
*** Reached end of trace: (7, "traces/canneal_big2.champsimtrace")
*** Reached end of trace: (4, "traces/canneal_big4.champsimtrace")
*** Reached end of trace: (3, "traces/canneal_big3.champsimtrace")
Heartbeat CPU 2 instructions: 260000001 cycles: 65005209 heartbeat IPC: 4 cumulative IPC: 4 (Simulation time: 02 hr 28 min 26 sec)
Heartbeat CPU 7 instructions: 260000001 cycles: 65005215 heartbeat IPC: 4 cumulative IPC: 4 (Simulation time: 02 hr 28 min 26 sec)
Heartbeat CPU 4 instructions: 260000001 cycles: 65005240 heartbeat IPC: 4 cumulative IPC: 4 (Simulation time: 02 hr 28 min 26 sec)
Heartbeat CPU 3 instructions: 260000001 cycles: 65005262 heartbeat IPC: 4 cumulative IPC: 4 (Simulation time: 02 hr 28 min 26 sec)
*** Reached end of trace: (0, "traces/canneal_big0.champsimtrace")
Heartbeat CPU 0 instructions: 140000037 cycles: 65621668 heartbeat IPC: 2.144 cumulative IPC: 2.127 (Simulation time: 02 hr 29 min 48 sec)
*** Reached end of trace: (2, "traces/canneal_big2.champsimtrace")
*** Reached end of trace: (7, "traces/canneal_big2.champsimtrace")
*** Reached end of trace: (4, "traces/canneal_big4.champsimtrace")
*** Reached end of trace: (3, "traces/canneal_big3.champsimtrace")
*** Reached end of trace: (5, "traces/canneal_big0.champsimtrace")
Heartbeat CPU 5 instructions: 140000032 cycles: 66973515 heartbeat IPC: 2.116 cumulative IPC: 2.083 (Simulation time: 02 hr 32 min 51 sec)
*** Reached end of trace: (2, "traces/canneal_big2.champsimtrace")
*** Reached end of trace: (7, "traces/canneal_big2.champsimtrace")
*** Reached end of trace: (4, "traces/canneal_big4.champsimtrace")
*** Reached end of trace: (3, "traces/canneal_big3.champsimtrace")
Heartbeat CPU 2 instructions: 270000001 cycles: 67505209 heartbeat IPC: 4 cumulative IPC: 4 (Simulation time: 02 hr 34 min 05 sec)
Heartbeat CPU 7 instructions: 270000001 cycles: 67505215 heartbeat IPC: 4 cumulative IPC: 4 (Simulation time: 02 hr 34 min 05 sec)
Heartbeat CPU 4 instructions: 270000001 cycles: 67505240 heartbeat IPC: 4 cumulative IPC: 4 (Simulation time: 02 hr 34 min 05 sec)
Heartbeat CPU 3 instructions: 270000001 cycles: 67505262 heartbeat IPC: 4 cumulative IPC: 4 (Simulation time: 02 hr 34 min 05 sec)
*** Reached end of trace: (0, "traces/canneal_big0.champsimtrace")
*** Reached end of trace: (2, "traces/canneal_big2.champsimtrace")
*** Reached end of trace: (7, "traces/canneal_big2.champsimtrace")
*** Reached end of trace: (4, "traces/canneal_big4.champsimtrace")
*** Reached end of trace: (3, "traces/canneal_big3.champsimtrace")
*** Reached end of trace: (5, "traces/canneal_big0.champsimtrace")
*** Reached end of trace: (2, "traces/canneal_big2.champsimtrace")
*** Reached end of trace: (7, "traces/canneal_big2.champsimtrace")
*** Reached end of trace: (4, "traces/canneal_big4.champsimtrace")
*** Reached end of trace: (3, "traces/canneal_big3.champsimtrace")
Heartbeat CPU 2 instructions: 280000001 cycles: 70005209 heartbeat IPC: 4 cumulative IPC: 4 (Simulation time: 02 hr 39 min 47 sec)
Heartbeat CPU 7 instructions: 280000001 cycles: 70005215 heartbeat IPC: 4 cumulative IPC: 4 (Simulation time: 02 hr 39 min 47 sec)
Heartbeat CPU 4 instructions: 280000001 cycles: 70005240 heartbeat IPC: 4 cumulative IPC: 4 (Simulation time: 02 hr 39 min 47 sec)
Heartbeat CPU 3 instructions: 280000001 cycles: 70005262 heartbeat IPC: 4 cumulative IPC: 4 (Simulation time: 02 hr 39 min 47 sec)
*** Reached end of trace: (0, "traces/canneal_big0.champsimtrace")
Heartbeat CPU 0 instructions: 150000037 cycles: 70312627 heartbeat IPC: 2.132 cumulative IPC: 2.128 (Simulation time: 02 hr 40 min 29 sec)
*** Reached end of trace: (2, "traces/canneal_big2.champsimtrace")
*** Reached end of trace: (7, "traces/canneal_big2.champsimtrace")
*** Reached end of trace: (4, "traces/canneal_big4.champsimtrace")
*** Reached end of trace: (3, "traces/canneal_big3.champsimtrace")
*** Reached end of trace: (5, "traces/canneal_big0.champsimtrace")
Heartbeat CPU 5 instructions: 150000032 cycles: 71692939 heartbeat IPC: 2.119 cumulative IPC: 2.085 (Simulation time: 02 hr 43 min 35 sec)
*** Reached end of trace: (2, "traces/canneal_big2.champsimtrace")
*** Reached end of trace: (7, "traces/canneal_big2.champsimtrace")
*** Reached end of trace: (4, "traces/canneal_big4.champsimtrace")
*** Reached end of trace: (3, "traces/canneal_big3.champsimtrace")
Heartbeat CPU 2 instructions: 290000001 cycles: 72505209 heartbeat IPC: 4 cumulative IPC: 4 (Simulation time: 02 hr 45 min 26 sec)
Heartbeat CPU 7 instructions: 290000001 cycles: 72505215 heartbeat IPC: 4 cumulative IPC: 4 (Simulation time: 02 hr 45 min 26 sec)
Heartbeat CPU 4 instructions: 290000001 cycles: 72505240 heartbeat IPC: 4 cumulative IPC: 4 (Simulation time: 02 hr 45 min 26 sec)
Heartbeat CPU 3 instructions: 290000001 cycles: 72505262 heartbeat IPC: 4 cumulative IPC: 4 (Simulation time: 02 hr 45 min 26 sec)
*** Reached end of trace: (0, "traces/canneal_big0.champsimtrace")
*** Reached end of trace: (2, "traces/canneal_big2.champsimtrace")
*** Reached end of trace: (7, "traces/canneal_big2.champsimtrace")
*** Reached end of trace: (4, "traces/canneal_big4.champsimtrace")
*** Reached end of trace: (3, "traces/canneal_big3.champsimtrace")
*** Reached end of trace: (5, "traces/canneal_big0.champsimtrace")
*** Reached end of trace: (2, "traces/canneal_big2.champsimtrace")
*** Reached end of trace: (7, "traces/canneal_big2.champsimtrace")
*** Reached end of trace: (4, "traces/canneal_big4.champsimtrace")
*** Reached end of trace: (3, "traces/canneal_big3.champsimtrace")
Heartbeat CPU 2 instructions: 300000001 cycles: 75005209 heartbeat IPC: 4 cumulative IPC: 4 (Simulation time: 02 hr 51 min 07 sec)
Heartbeat CPU 7 instructions: 300000001 cycles: 75005215 heartbeat IPC: 4 cumulative IPC: 4 (Simulation time: 02 hr 51 min 07 sec)
Heartbeat CPU 4 instructions: 300000001 cycles: 75005240 heartbeat IPC: 4 cumulative IPC: 4 (Simulation time: 02 hr 51 min 07 sec)
Heartbeat CPU 3 instructions: 300000001 cycles: 75005262 heartbeat IPC: 4 cumulative IPC: 4 (Simulation time: 02 hr 51 min 07 sec)
*** Reached end of trace: (0, "traces/canneal_big0.champsimtrace")
Heartbeat CPU 0 instructions: 160000040 cycles: 75013145 heartbeat IPC: 2.127 cumulative IPC: 2.128 (Simulation time: 02 hr 51 min 08 sec)
*** Reached end of trace: (2, "traces/canneal_big2.champsimtrace")
*** Reached end of trace: (7, "traces/canneal_big2.champsimtrace")
*** Reached end of trace: (4, "traces/canneal_big4.champsimtrace")
*** Reached end of trace: (3, "traces/canneal_big3.champsimtrace")
*** Reached end of trace: (5, "traces/canneal_big0.champsimtrace")
Heartbeat CPU 5 instructions: 160000033 cycles: 76425134 heartbeat IPC: 2.113 cumulative IPC: 2.087 (Simulation time: 02 hr 54 min 22 sec)
*** Reached end of trace: (0, "traces/canneal_big0.champsimtrace")
*** Reached end of trace: (2, "traces/canneal_big2.champsimtrace")
*** Reached end of trace: (7, "traces/canneal_big2.champsimtrace")
*** Reached end of trace: (4, "traces/canneal_big4.champsimtrace")
*** Reached end of trace: (3, "traces/canneal_big3.champsimtrace")
Heartbeat CPU 2 instructions: 310000001 cycles: 77505209 heartbeat IPC: 4 cumulative IPC: 4 (Simulation time: 02 hr 56 min 51 sec)
Heartbeat CPU 7 instructions: 310000001 cycles: 77505215 heartbeat IPC: 4 cumulative IPC: 4 (Simulation time: 02 hr 56 min 51 sec)
Heartbeat CPU 4 instructions: 310000001 cycles: 77505240 heartbeat IPC: 4 cumulative IPC: 4 (Simulation time: 02 hr 56 min 51 sec)
Heartbeat CPU 3 instructions: 310000001 cycles: 77505262 heartbeat IPC: 4 cumulative IPC: 4 (Simulation time: 02 hr 56 min 51 sec)
*** Reached end of trace: (2, "traces/canneal_big2.champsimtrace")
*** Reached end of trace: (7, "traces/canneal_big2.champsimtrace")
*** Reached end of trace: (4, "traces/canneal_big4.champsimtrace")
*** Reached end of trace: (3, "traces/canneal_big3.champsimtrace")
*** Reached end of trace: (5, "traces/canneal_big0.champsimtrace")
*** Reached end of trace: (0, "traces/canneal_big0.champsimtrace")
Heartbeat CPU 0 instructions: 170000041 cycles: 79703965 heartbeat IPC: 2.132 cumulative IPC: 2.128 (Simulation time: 03 hr 01 min 52 sec)
*** Reached end of trace: (2, "traces/canneal_big2.champsimtrace")
*** Reached end of trace: (7, "traces/canneal_big2.champsimtrace")
*** Reached end of trace: (4, "traces/canneal_big4.champsimtrace")
*** Reached end of trace: (3, "traces/canneal_big3.champsimtrace")
Heartbeat CPU 2 instructions: 320000001 cycles: 80005209 heartbeat IPC: 4 cumulative IPC: 4 (Simulation time: 03 hr 02 min 34 sec)
Heartbeat CPU 7 instructions: 320000001 cycles: 80005215 heartbeat IPC: 4 cumulative IPC: 4 (Simulation time: 03 hr 02 min 34 sec)
Heartbeat CPU 4 instructions: 320000001 cycles: 80005240 heartbeat IPC: 4 cumulative IPC: 4 (Simulation time: 03 hr 02 min 34 sec)
Heartbeat CPU 3 instructions: 320000001 cycles: 80005262 heartbeat IPC: 4 cumulative IPC: 4 (Simulation time: 03 hr 02 min 34 sec)
*** Reached end of trace: (5, "traces/canneal_big0.champsimtrace")
Heartbeat CPU 5 instructions: 170000033 cycles: 81169133 heartbeat IPC: 2.108 cumulative IPC: 2.088 (Simulation time: 03 hr 05 min 12 sec)
*** Reached end of trace: (2, "traces/canneal_big2.champsimtrace")
*** Reached end of trace: (7, "traces/canneal_big2.champsimtrace")
*** Reached end of trace: (4, "traces/canneal_big4.champsimtrace")
*** Reached end of trace: (3, "traces/canneal_big3.champsimtrace")
*** Reached end of trace: (0, "traces/canneal_big0.champsimtrace")
*** Reached end of trace: (2, "traces/canneal_big2.champsimtrace")
*** Reached end of trace: (7, "traces/canneal_big2.champsimtrace")
*** Reached end of trace: (4, "traces/canneal_big4.champsimtrace")
*** Reached end of trace: (3, "traces/canneal_big3.champsimtrace")
Heartbeat CPU 2 instructions: 330000001 cycles: 82505209 heartbeat IPC: 4 cumulative IPC: 4 (Simulation time: 03 hr 08 min 18 sec)
Heartbeat CPU 7 instructions: 330000001 cycles: 82505215 heartbeat IPC: 4 cumulative IPC: 4 (Simulation time: 03 hr 08 min 18 sec)
Heartbeat CPU 4 instructions: 330000001 cycles: 82505240 heartbeat IPC: 4 cumulative IPC: 4 (Simulation time: 03 hr 08 min 18 sec)
Heartbeat CPU 3 instructions: 330000001 cycles: 82505262 heartbeat IPC: 4 cumulative IPC: 4 (Simulation time: 03 hr 08 min 18 sec)
*** Reached end of trace: (5, "traces/canneal_big0.champsimtrace")
*** Reached end of trace: (2, "traces/canneal_big2.champsimtrace")
*** Reached end of trace: (7, "traces/canneal_big2.champsimtrace")
*** Reached end of trace: (4, "traces/canneal_big4.champsimtrace")
*** Reached end of trace: (3, "traces/canneal_big3.champsimtrace")
*** Reached end of trace: (0, "traces/canneal_big0.champsimtrace")
Heartbeat CPU 0 instructions: 180000041 cycles: 84409124 heartbeat IPC: 2.125 cumulative IPC: 2.128 (Simulation time: 03 hr 12 min 38 sec)
*** Reached end of trace: (2, "traces/canneal_big2.champsimtrace")
*** Reached end of trace: (7, "traces/canneal_big2.champsimtrace")
*** Reached end of trace: (4, "traces/canneal_big4.champsimtrace")
*** Reached end of trace: (3, "traces/canneal_big3.champsimtrace")
Heartbeat CPU 2 instructions: 340000001 cycles: 85005209 heartbeat IPC: 4 cumulative IPC: 4 (Simulation time: 03 hr 14 min 02 sec)
Heartbeat CPU 7 instructions: 340000001 cycles: 85005215 heartbeat IPC: 4 cumulative IPC: 4 (Simulation time: 03 hr 14 min 02 sec)
Heartbeat CPU 4 instructions: 340000001 cycles: 85005240 heartbeat IPC: 4 cumulative IPC: 4 (Simulation time: 03 hr 14 min 02 sec)
Heartbeat CPU 3 instructions: 340000001 cycles: 85005262 heartbeat IPC: 4 cumulative IPC: 4 (Simulation time: 03 hr 14 min 02 sec)
*** Reached end of trace: (5, "traces/canneal_big0.champsimtrace")
Heartbeat CPU 5 instructions: 180000036 cycles: 85897346 heartbeat IPC: 2.115 cumulative IPC: 2.09 (Simulation time: 03 hr 16 min 04 sec)
*** Reached end of trace: (2, "traces/canneal_big2.champsimtrace")
*** Reached end of trace: (7, "traces/canneal_big2.champsimtrace")
*** Reached end of trace: (4, "traces/canneal_big4.champsimtrace")
*** Reached end of trace: (3, "traces/canneal_big3.champsimtrace")
*** Reached end of trace: (0, "traces/canneal_big0.champsimtrace")
*** Reached end of trace: (2, "traces/canneal_big2.champsimtrace")
*** Reached end of trace: (7, "traces/canneal_big2.champsimtrace")
*** Reached end of trace: (4, "traces/canneal_big4.champsimtrace")
*** Reached end of trace: (3, "traces/canneal_big3.champsimtrace")
Heartbeat CPU 2 instructions: 350000001 cycles: 87505209 heartbeat IPC: 4 cumulative IPC: 4 (Simulation time: 03 hr 19 min 47 sec)
Heartbeat CPU 7 instructions: 350000001 cycles: 87505215 heartbeat IPC: 4 cumulative IPC: 4 (Simulation time: 03 hr 19 min 47 sec)
Heartbeat CPU 4 instructions: 350000001 cycles: 87505240 heartbeat IPC: 4 cumulative IPC: 4 (Simulation time: 03 hr 19 min 47 sec)
Heartbeat CPU 3 instructions: 350000001 cycles: 87505262 heartbeat IPC: 4 cumulative IPC: 4 (Simulation time: 03 hr 19 min 47 sec)
*** Reached end of trace: (5, "traces/canneal_big0.champsimtrace")
*** Reached end of trace: (2, "traces/canneal_big2.champsimtrace")
*** Reached end of trace: (7, "traces/canneal_big2.champsimtrace")
*** Reached end of trace: (4, "traces/canneal_big4.champsimtrace")
*** Reached end of trace: (3, "traces/canneal_big3.champsimtrace")
*** Reached end of trace: (1, "traces/canneal_big1.champsimtrace")
*** Reached end of trace: (0, "traces/canneal_big0.champsimtrace")
Heartbeat CPU 0 instructions: 190000042 cycles: 89116341 heartbeat IPC: 2.124 cumulative IPC: 2.128 (Simulation time: 03 hr 23 min 30 sec)
*** Reached end of trace: (6, "traces/canneal_big1.champsimtrace")
*** Reached end of trace: (2, "traces/canneal_big2.champsimtrace")
*** Reached end of trace: (7, "traces/canneal_big2.champsimtrace")
*** Reached end of trace: (4, "traces/canneal_big4.champsimtrace")
*** Reached end of trace: (3, "traces/canneal_big3.champsimtrace")
Heartbeat CPU 2 instructions: 360000001 cycles: 90005209 heartbeat IPC: 4 cumulative IPC: 4 (Simulation time: 03 hr 25 min 36 sec)
Heartbeat CPU 7 instructions: 360000001 cycles: 90005215 heartbeat IPC: 4 cumulative IPC: 4 (Simulation time: 03 hr 25 min 36 sec)
Heartbeat CPU 4 instructions: 360000001 cycles: 90005240 heartbeat IPC: 4 cumulative IPC: 4 (Simulation time: 03 hr 25 min 36 sec)
Heartbeat CPU 3 instructions: 360000001 cycles: 90005262 heartbeat IPC: 4 cumulative IPC: 4 (Simulation time: 03 hr 25 min 36 sec)
*** Reached end of trace: (5, "traces/canneal_big0.champsimtrace")
Heartbeat CPU 5 instructions: 190000037 cycles: 90635951 heartbeat IPC: 2.11 cumulative IPC: 2.091 (Simulation time: 03 hr 27 min 00 sec)
*** Reached end of trace: (2, "traces/canneal_big2.champsimtrace")
*** Reached end of trace: (7, "traces/canneal_big2.champsimtrace")
*** Reached end of trace: (4, "traces/canneal_big4.champsimtrace")
*** Reached end of trace: (3, "traces/canneal_big3.champsimtrace")
*** Reached end of trace: (0, "traces/canneal_big0.champsimtrace")
*** Reached end of trace: (2, "traces/canneal_big2.champsimtrace")
*** Reached end of trace: (7, "traces/canneal_big2.champsimtrace")
*** Reached end of trace: (4, "traces/canneal_big4.champsimtrace")
*** Reached end of trace: (3, "traces/canneal_big3.champsimtrace")
Heartbeat CPU 2 instructions: 370000001 cycles: 92505209 heartbeat IPC: 4 cumulative IPC: 4 (Simulation time: 03 hr 31 min 19 sec)
Heartbeat CPU 7 instructions: 370000001 cycles: 92505215 heartbeat IPC: 4 cumulative IPC: 4 (Simulation time: 03 hr 31 min 19 sec)
Heartbeat CPU 4 instructions: 370000001 cycles: 92505240 heartbeat IPC: 4 cumulative IPC: 4 (Simulation time: 03 hr 31 min 19 sec)
Heartbeat CPU 3 instructions: 370000001 cycles: 92505262 heartbeat IPC: 4 cumulative IPC: 4 (Simulation time: 03 hr 31 min 19 sec)
*** Reached end of trace: (5, "traces/canneal_big0.champsimtrace")
*** Reached end of trace: (2, "traces/canneal_big2.champsimtrace")
*** Reached end of trace: (7, "traces/canneal_big2.champsimtrace")
*** Reached end of trace: (4, "traces/canneal_big4.champsimtrace")
*** Reached end of trace: (3, "traces/canneal_big3.champsimtrace")
*** Reached end of trace: (0, "traces/canneal_big0.champsimtrace")
Heartbeat CPU 0 instructions: 200000045 cycles: 93840924 heartbeat IPC: 2.117 cumulative IPC: 2.127 (Simulation time: 03 hr 34 min 21 sec)
*** Reached end of trace: (2, "traces/canneal_big2.champsimtrace")
*** Reached end of trace: (7, "traces/canneal_big2.champsimtrace")
*** Reached end of trace: (4, "traces/canneal_big4.champsimtrace")
*** Reached end of trace: (3, "traces/canneal_big3.champsimtrace")
Heartbeat CPU 2 instructions: 380000001 cycles: 95005209 heartbeat IPC: 4 cumulative IPC: 4 (Simulation time: 03 hr 37 min 01 sec)
Heartbeat CPU 7 instructions: 380000001 cycles: 95005215 heartbeat IPC: 4 cumulative IPC: 4 (Simulation time: 03 hr 37 min 01 sec)
Heartbeat CPU 4 instructions: 380000001 cycles: 95005240 heartbeat IPC: 4 cumulative IPC: 4 (Simulation time: 03 hr 37 min 01 sec)
Heartbeat CPU 3 instructions: 380000001 cycles: 95005262 heartbeat IPC: 4 cumulative IPC: 4 (Simulation time: 03 hr 37 min 01 sec)
*** Reached end of trace: (5, "traces/canneal_big0.champsimtrace")
Heartbeat CPU 5 instructions: 200000037 cycles: 95413645 heartbeat IPC: 2.093 cumulative IPC: 2.091 (Simulation time: 03 hr 37 min 56 sec)
*** Reached end of trace: (0, "traces/canneal_big0.champsimtrace")
*** Reached end of trace: (2, "traces/canneal_big2.champsimtrace")
*** Reached end of trace: (7, "traces/canneal_big2.champsimtrace")
*** Reached end of trace: (4, "traces/canneal_big4.champsimtrace")
*** Reached end of trace: (3, "traces/canneal_big3.champsimtrace")
*** Reached end of trace: (2, "traces/canneal_big2.champsimtrace")
*** Reached end of trace: (7, "traces/canneal_big2.champsimtrace")
*** Reached end of trace: (4, "traces/canneal_big4.champsimtrace")
*** Reached end of trace: (3, "traces/canneal_big3.champsimtrace")
Heartbeat CPU 2 instructions: 390000001 cycles: 97505209 heartbeat IPC: 4 cumulative IPC: 4 (Simulation time: 03 hr 42 min 44 sec)
Heartbeat CPU 7 instructions: 390000001 cycles: 97505215 heartbeat IPC: 4 cumulative IPC: 4 (Simulation time: 03 hr 42 min 44 sec)
Heartbeat CPU 4 instructions: 390000001 cycles: 97505240 heartbeat IPC: 4 cumulative IPC: 4 (Simulation time: 03 hr 42 min 44 sec)
Heartbeat CPU 3 instructions: 390000001 cycles: 97505262 heartbeat IPC: 4 cumulative IPC: 4 (Simulation time: 03 hr 42 min 44 sec)
*** Reached end of trace: (5, "traces/canneal_big0.champsimtrace")
*** Reached end of trace: (0, "traces/canneal_big0.champsimtrace")
Heartbeat CPU 0 instructions: 210000048 cycles: 98564830 heartbeat IPC: 2.117 cumulative IPC: 2.127 (Simulation time: 03 hr 45 min 09 sec)
*** Reached end of trace: (2, "traces/canneal_big2.champsimtrace")
*** Reached end of trace: (7, "traces/canneal_big2.champsimtrace")
*** Reached end of trace: (4, "traces/canneal_big4.champsimtrace")
*** Reached end of trace: (3, "traces/canneal_big3.champsimtrace")
*** Reached end of trace: (2, "traces/canneal_big2.champsimtrace")
*** Reached end of trace: (7, "traces/canneal_big2.champsimtrace")
*** Reached end of trace: (4, "traces/canneal_big4.champsimtrace")
*** Reached end of trace: (3, "traces/canneal_big3.champsimtrace")
Heartbeat CPU 2 instructions: 400000001 cycles: 100005209 heartbeat IPC: 4 cumulative IPC: 4 (Simulation time: 03 hr 48 min 26 sec)
Heartbeat CPU 7 instructions: 400000001 cycles: 100005215 heartbeat IPC: 4 cumulative IPC: 4 (Simulation time: 03 hr 48 min 26 sec)
Heartbeat CPU 4 instructions: 400000001 cycles: 100005240 heartbeat IPC: 4 cumulative IPC: 4 (Simulation time: 03 hr 48 min 26 sec)
Heartbeat CPU 3 instructions: 400000001 cycles: 100005262 heartbeat IPC: 4 cumulative IPC: 4 (Simulation time: 03 hr 48 min 26 sec)
*** Reached end of trace: (5, "traces/canneal_big0.champsimtrace")
Heartbeat CPU 5 instructions: 210000040 cycles: 100183713 heartbeat IPC: 2.096 cumulative IPC: 2.091 (Simulation time: 03 hr 48 min 49 sec)
*** Reached end of trace: (0, "traces/canneal_big0.champsimtrace")
*** Reached end of trace: (2, "traces/canneal_big2.champsimtrace")
*** Reached end of trace: (7, "traces/canneal_big2.champsimtrace")
*** Reached end of trace: (4, "traces/canneal_big4.champsimtrace")
*** Reached end of trace: (3, "traces/canneal_big3.champsimtrace")
*** Reached end of trace: (2, "traces/canneal_big2.champsimtrace")
*** Reached end of trace: (7, "traces/canneal_big2.champsimtrace")
*** Reached end of trace: (4, "traces/canneal_big4.champsimtrace")
*** Reached end of trace: (3, "traces/canneal_big3.champsimtrace")
Heartbeat CPU 2 instructions: 410000001 cycles: 102505209 heartbeat IPC: 4 cumulative IPC: 4 (Simulation time: 03 hr 54 min 08 sec)
Heartbeat CPU 7 instructions: 410000001 cycles: 102505215 heartbeat IPC: 4 cumulative IPC: 4 (Simulation time: 03 hr 54 min 08 sec)
Heartbeat CPU 4 instructions: 410000001 cycles: 102505240 heartbeat IPC: 4 cumulative IPC: 4 (Simulation time: 03 hr 54 min 08 sec)
Heartbeat CPU 3 instructions: 410000001 cycles: 102505262 heartbeat IPC: 4 cumulative IPC: 4 (Simulation time: 03 hr 54 min 08 sec)
*** Reached end of trace: (5, "traces/canneal_big0.champsimtrace")
*** Reached end of trace: (0, "traces/canneal_big0.champsimtrace")
Heartbeat CPU 0 instructions: 220000051 cycles: 103303606 heartbeat IPC: 2.11 cumulative IPC: 2.126 (Simulation time: 03 hr 55 min 59 sec)
*** Reached end of trace: (2, "traces/canneal_big2.champsimtrace")
*** Reached end of trace: (7, "traces/canneal_big2.champsimtrace")
*** Reached end of trace: (4, "traces/canneal_big4.champsimtrace")
*** Reached end of trace: (3, "traces/canneal_big3.champsimtrace")
*** Reached end of trace: (5, "traces/canneal_big0.champsimtrace")
Heartbeat CPU 5 instructions: 220000043 cycles: 104944039 heartbeat IPC: 2.101 cumulative IPC: 2.092 (Simulation time: 03 hr 59 min 42 sec)
*** Reached end of trace: (2, "traces/canneal_big2.champsimtrace")
*** Reached end of trace: (7, "traces/canneal_big2.champsimtrace")
*** Reached end of trace: (4, "traces/canneal_big4.champsimtrace")
*** Reached end of trace: (3, "traces/canneal_big3.champsimtrace")
Heartbeat CPU 2 instructions: 420000001 cycles: 105005209 heartbeat IPC: 4 cumulative IPC: 4 (Simulation time: 03 hr 59 min 50 sec)
Heartbeat CPU 7 instructions: 420000001 cycles: 105005215 heartbeat IPC: 4 cumulative IPC: 4 (Simulation time: 03 hr 59 min 50 sec)
Heartbeat CPU 4 instructions: 420000001 cycles: 105005240 heartbeat IPC: 4 cumulative IPC: 4 (Simulation time: 03 hr 59 min 50 sec)
Heartbeat CPU 3 instructions: 420000001 cycles: 105005262 heartbeat IPC: 4 cumulative IPC: 4 (Simulation time: 03 hr 59 min 50 sec)
*** Reached end of trace: (0, "traces/canneal_big0.champsimtrace")
*** Reached end of trace: (2, "traces/canneal_big2.champsimtrace")
*** Reached end of trace: (7, "traces/canneal_big2.champsimtrace")
*** Reached end of trace: (4, "traces/canneal_big4.champsimtrace")
*** Reached end of trace: (3, "traces/canneal_big3.champsimtrace")
*** Reached end of trace: (5, "traces/canneal_big0.champsimtrace")
*** Reached end of trace: (2, "traces/canneal_big2.champsimtrace")
*** Reached end of trace: (7, "traces/canneal_big2.champsimtrace")
*** Reached end of trace: (4, "traces/canneal_big4.champsimtrace")
*** Reached end of trace: (3, "traces/canneal_big3.champsimtrace")
Heartbeat CPU 2 instructions: 430000001 cycles: 107505209 heartbeat IPC: 4 cumulative IPC: 4 (Simulation time: 04 hr 05 min 32 sec)
Heartbeat CPU 7 instructions: 430000001 cycles: 107505215 heartbeat IPC: 4 cumulative IPC: 4 (Simulation time: 04 hr 05 min 32 sec)
Heartbeat CPU 4 instructions: 430000001 cycles: 107505240 heartbeat IPC: 4 cumulative IPC: 4 (Simulation time: 04 hr 05 min 32 sec)
Heartbeat CPU 3 instructions: 430000001 cycles: 107505262 heartbeat IPC: 4 cumulative IPC: 4 (Simulation time: 04 hr 05 min 32 sec)
*** Reached end of trace: (0, "traces/canneal_big0.champsimtrace")
Heartbeat CPU 0 instructions: 230000054 cycles: 108035587 heartbeat IPC: 2.113 cumulative IPC: 2.125 (Simulation time: 04 hr 06 min 46 sec)
*** Reached end of trace: (2, "traces/canneal_big2.champsimtrace")
*** Reached end of trace: (7, "traces/canneal_big2.champsimtrace")
*** Reached end of trace: (4, "traces/canneal_big4.champsimtrace")
*** Reached end of trace: (3, "traces/canneal_big3.champsimtrace")
*** Reached end of trace: (5, "traces/canneal_big0.champsimtrace")
Heartbeat CPU 5 instructions: 230000046 cycles: 109710790 heartbeat IPC: 2.098 cumulative IPC: 2.092 (Simulation time: 04 hr 10 min 35 sec)
*** Reached end of trace: (2, "traces/canneal_big2.champsimtrace")
*** Reached end of trace: (7, "traces/canneal_big2.champsimtrace")
*** Reached end of trace: (4, "traces/canneal_big4.champsimtrace")
*** Reached end of trace: (3, "traces/canneal_big3.champsimtrace")
Heartbeat CPU 2 instructions: 440000001 cycles: 110005209 heartbeat IPC: 4 cumulative IPC: 4 (Simulation time: 04 hr 11 min 16 sec)
Heartbeat CPU 7 instructions: 440000001 cycles: 110005215 heartbeat IPC: 4 cumulative IPC: 4 (Simulation time: 04 hr 11 min 16 sec)
Heartbeat CPU 4 instructions: 440000001 cycles: 110005240 heartbeat IPC: 4 cumulative IPC: 4 (Simulation time: 04 hr 11 min 16 sec)
Heartbeat CPU 3 instructions: 440000001 cycles: 110005262 heartbeat IPC: 4 cumulative IPC: 4 (Simulation time: 04 hr 11 min 16 sec)
*** Reached end of trace: (0, "traces/canneal_big0.champsimtrace")
*** Reached end of trace: (2, "traces/canneal_big2.champsimtrace")
*** Reached end of trace: (7, "traces/canneal_big2.champsimtrace")
*** Reached end of trace: (4, "traces/canneal_big4.champsimtrace")
*** Reached end of trace: (3, "traces/canneal_big3.champsimtrace")
*** Reached end of trace: (5, "traces/canneal_big0.champsimtrace")
*** Reached end of trace: (2, "traces/canneal_big2.champsimtrace")
*** Reached end of trace: (7, "traces/canneal_big2.champsimtrace")
*** Reached end of trace: (4, "traces/canneal_big4.champsimtrace")
*** Reached end of trace: (3, "traces/canneal_big3.champsimtrace")
Heartbeat CPU 2 instructions: 450000001 cycles: 112505209 heartbeat IPC: 4 cumulative IPC: 4 (Simulation time: 04 hr 17 min 00 sec)
Heartbeat CPU 7 instructions: 450000001 cycles: 112505215 heartbeat IPC: 4 cumulative IPC: 4 (Simulation time: 04 hr 17 min 00 sec)
Heartbeat CPU 4 instructions: 450000001 cycles: 112505240 heartbeat IPC: 4 cumulative IPC: 4 (Simulation time: 04 hr 17 min 00 sec)
Heartbeat CPU 3 instructions: 450000001 cycles: 112505262 heartbeat IPC: 4 cumulative IPC: 4 (Simulation time: 04 hr 17 min 00 sec)
*** Reached end of trace: (0, "traces/canneal_big0.champsimtrace")
Heartbeat CPU 0 instructions: 240000057 cycles: 112772226 heartbeat IPC: 2.111 cumulative IPC: 2.125 (Simulation time: 04 hr 17 min 37 sec)
*** Reached end of trace: (2, "traces/canneal_big2.champsimtrace")
*** Reached end of trace: (7, "traces/canneal_big2.champsimtrace")
*** Reached end of trace: (4, "traces/canneal_big4.champsimtrace")
*** Reached end of trace: (3, "traces/canneal_big3.champsimtrace")
*** Reached end of trace: (5, "traces/canneal_big0.champsimtrace")
Heartbeat CPU 5 instructions: 240000049 cycles: 114470214 heartbeat IPC: 2.101 cumulative IPC: 2.092 (Simulation time: 04 hr 21 min 29 sec)
*** Reached end of trace: (2, "traces/canneal_big2.champsimtrace")
*** Reached end of trace: (7, "traces/canneal_big2.champsimtrace")
*** Reached end of trace: (4, "traces/canneal_big4.champsimtrace")
*** Reached end of trace: (3, "traces/canneal_big3.champsimtrace")
Heartbeat CPU 2 instructions: 460000001 cycles: 115005209 heartbeat IPC: 4 cumulative IPC: 4 (Simulation time: 04 hr 22 min 44 sec)
Heartbeat CPU 7 instructions: 460000001 cycles: 115005215 heartbeat IPC: 4 cumulative IPC: 4 (Simulation time: 04 hr 22 min 44 sec)
Heartbeat CPU 4 instructions: 460000001 cycles: 115005240 heartbeat IPC: 4 cumulative IPC: 4 (Simulation time: 04 hr 22 min 44 sec)
Heartbeat CPU 3 instructions: 460000001 cycles: 115005262 heartbeat IPC: 4 cumulative IPC: 4 (Simulation time: 04 hr 22 min 44 sec)
*** Reached end of trace: (0, "traces/canneal_big0.champsimtrace")
*** Reached end of trace: (2, "traces/canneal_big2.champsimtrace")
*** Reached end of trace: (7, "traces/canneal_big2.champsimtrace")
*** Reached end of trace: (4, "traces/canneal_big4.champsimtrace")
*** Reached end of trace: (3, "traces/canneal_big3.champsimtrace")
*** Reached end of trace: (5, "traces/canneal_big0.champsimtrace")
*** Reached end of trace: (2, "traces/canneal_big2.champsimtrace")
*** Reached end of trace: (7, "traces/canneal_big2.champsimtrace")
*** Reached end of trace: (4, "traces/canneal_big4.champsimtrace")
*** Reached end of trace: (3, "traces/canneal_big3.champsimtrace")
Heartbeat CPU 2 instructions: 470000001 cycles: 117505209 heartbeat IPC: 4 cumulative IPC: 4 (Simulation time: 04 hr 28 min 26 sec)
Heartbeat CPU 7 instructions: 470000001 cycles: 117505215 heartbeat IPC: 4 cumulative IPC: 4 (Simulation time: 04 hr 28 min 26 sec)
Heartbeat CPU 4 instructions: 470000001 cycles: 117505240 heartbeat IPC: 4 cumulative IPC: 4 (Simulation time: 04 hr 28 min 26 sec)
Heartbeat CPU 3 instructions: 470000001 cycles: 117505262 heartbeat IPC: 4 cumulative IPC: 4 (Simulation time: 04 hr 28 min 26 sec)
*** Reached end of trace: (0, "traces/canneal_big0.champsimtrace")
Heartbeat CPU 0 instructions: 250000060 cycles: 117507664 heartbeat IPC: 2.112 cumulative IPC: 2.124 (Simulation time: 04 hr 28 min 27 sec)
*** Reached end of trace: (2, "traces/canneal_big2.champsimtrace")
*** Reached end of trace: (7, "traces/canneal_big2.champsimtrace")
*** Reached end of trace: (4, "traces/canneal_big4.champsimtrace")
*** Reached end of trace: (3, "traces/canneal_big3.champsimtrace")
*** Reached end of trace: (5, "traces/canneal_big0.champsimtrace")
Heartbeat CPU 5 instructions: 250000050 cycles: 119253561 heartbeat IPC: 2.091 cumulative IPC: 2.092 (Simulation time: 04 hr 32 min 26 sec)
*** Reached end of trace: (0, "traces/canneal_big0.champsimtrace")
*** Reached end of trace: (2, "traces/canneal_big2.champsimtrace")
*** Reached end of trace: (7, "traces/canneal_big2.champsimtrace")
*** Reached end of trace: (4, "traces/canneal_big4.champsimtrace")
*** Reached end of trace: (3, "traces/canneal_big3.champsimtrace")
Heartbeat CPU 2 instructions: 480000001 cycles: 120005209 heartbeat IPC: 4 cumulative IPC: 4 (Simulation time: 04 hr 34 min 10 sec)
Heartbeat CPU 7 instructions: 480000001 cycles: 120005215 heartbeat IPC: 4 cumulative IPC: 4 (Simulation time: 04 hr 34 min 10 sec)
Heartbeat CPU 4 instructions: 480000001 cycles: 120005240 heartbeat IPC: 4 cumulative IPC: 4 (Simulation time: 04 hr 34 min 10 sec)
Heartbeat CPU 3 instructions: 480000001 cycles: 120005262 heartbeat IPC: 4 cumulative IPC: 4 (Simulation time: 04 hr 34 min 10 sec)
*** Reached end of trace: (1, "traces/canneal_big1.champsimtrace")
Heartbeat CPU 1 instructions: 20000004 cycles: 120067103 heartbeat IPC: 0.1607 cumulative IPC: 0.161 (Simulation time: 04 hr 34 min 19 sec)
*** Reached end of trace: (6, "traces/canneal_big1.champsimtrace")
Heartbeat CPU 6 instructions: 20000004 cycles: 120495681 heartbeat IPC: 0.1601 cumulative IPC: 0.1605 (Simulation time: 04 hr 35 min 20 sec)
*** Reached end of trace: (2, "traces/canneal_big2.champsimtrace")
*** Reached end of trace: (7, "traces/canneal_big2.champsimtrace")
*** Reached end of trace: (4, "traces/canneal_big4.champsimtrace")
*** Reached end of trace: (3, "traces/canneal_big3.champsimtrace")
*** Reached end of trace: (5, "traces/canneal_big0.champsimtrace")
*** Reached end of trace: (0, "traces/canneal_big0.champsimtrace")
Heartbeat CPU 0 instructions: 260000063 cycles: 122261923 heartbeat IPC: 2.103 cumulative IPC: 2.123 (Simulation time: 04 hr 39 min 21 sec)
*** Reached end of trace: (2, "traces/canneal_big2.champsimtrace")
*** Reached end of trace: (7, "traces/canneal_big2.champsimtrace")
*** Reached end of trace: (4, "traces/canneal_big4.champsimtrace")
*** Reached end of trace: (3, "traces/canneal_big3.champsimtrace")
Heartbeat CPU 2 instructions: 490000001 cycles: 122505209 heartbeat IPC: 4 cumulative IPC: 4 (Simulation time: 04 hr 39 min 55 sec)
Heartbeat CPU 7 instructions: 490000001 cycles: 122505215 heartbeat IPC: 4 cumulative IPC: 4 (Simulation time: 04 hr 39 min 55 sec)
Heartbeat CPU 4 instructions: 490000001 cycles: 122505240 heartbeat IPC: 4 cumulative IPC: 4 (Simulation time: 04 hr 39 min 55 sec)
Heartbeat CPU 3 instructions: 490000001 cycles: 122505262 heartbeat IPC: 4 cumulative IPC: 4 (Simulation time: 04 hr 39 min 55 sec)
*** Reached end of trace: (2, "traces/canneal_big2.champsimtrace")
*** Reached end of trace: (7, "traces/canneal_big2.champsimtrace")
*** Reached end of trace: (4, "traces/canneal_big4.champsimtrace")
*** Reached end of trace: (3, "traces/canneal_big3.champsimtrace")
*** Reached end of trace: (5, "traces/canneal_big0.champsimtrace")
Heartbeat CPU 5 instructions: 260000053 cycles: 124061537 heartbeat IPC: 2.08 cumulative IPC: 2.092 (Simulation time: 04 hr 43 min 28 sec)
*** Reached end of trace: (0, "traces/canneal_big0.champsimtrace")
*** Reached end of trace: (2, "traces/canneal_big2.champsimtrace")
*** Reached end of trace: (7, "traces/canneal_big2.champsimtrace")
*** Reached end of trace: (4, "traces/canneal_big4.champsimtrace")
*** Reached end of trace: (3, "traces/canneal_big3.champsimtrace")
Heartbeat CPU 2 instructions: 500000001 cycles: 125005209 heartbeat IPC: 4 cumulative IPC: 4 (Simulation time: 04 hr 45 min 41 sec)
Heartbeat CPU 7 instructions: 500000001 cycles: 125005215 heartbeat IPC: 4 cumulative IPC: 4 (Simulation time: 04 hr 45 min 41 sec)
Heartbeat CPU 4 instructions: 500000001 cycles: 125005240 heartbeat IPC: 4 cumulative IPC: 4 (Simulation time: 04 hr 45 min 41 sec)
Heartbeat CPU 3 instructions: 500000001 cycles: 125005262 heartbeat IPC: 4 cumulative IPC: 4 (Simulation time: 04 hr 45 min 41 sec)
*** Reached end of trace: (2, "traces/canneal_big2.champsimtrace")
*** Reached end of trace: (7, "traces/canneal_big2.champsimtrace")
*** Reached end of trace: (4, "traces/canneal_big4.champsimtrace")
*** Reached end of trace: (3, "traces/canneal_big3.champsimtrace")
*** Reached end of trace: (5, "traces/canneal_big0.champsimtrace")
*** Reached end of trace: (0, "traces/canneal_big0.champsimtrace")
Heartbeat CPU 0 instructions: 270000066 cycles: 127033164 heartbeat IPC: 2.096 cumulative IPC: 2.122 (Simulation time: 04 hr 50 min 17 sec)
*** Reached end of trace: (2, "traces/canneal_big2.champsimtrace")
*** Reached end of trace: (7, "traces/canneal_big2.champsimtrace")
*** Reached end of trace: (4, "traces/canneal_big4.champsimtrace")
*** Reached end of trace: (3, "traces/canneal_big3.champsimtrace")
Heartbeat CPU 2 instructions: 510000001 cycles: 127505209 heartbeat IPC: 4 cumulative IPC: 4 (Simulation time: 04 hr 51 min 24 sec)
Heartbeat CPU 7 instructions: 510000001 cycles: 127505215 heartbeat IPC: 4 cumulative IPC: 4 (Simulation time: 04 hr 51 min 24 sec)
Heartbeat CPU 4 instructions: 510000001 cycles: 127505240 heartbeat IPC: 4 cumulative IPC: 4 (Simulation time: 04 hr 51 min 24 sec)
Heartbeat CPU 3 instructions: 510000001 cycles: 127505262 heartbeat IPC: 4 cumulative IPC: 4 (Simulation time: 04 hr 51 min 24 sec)
*** Reached end of trace: (2, "traces/canneal_big2.champsimtrace")
*** Reached end of trace: (7, "traces/canneal_big2.champsimtrace")
*** Reached end of trace: (4, "traces/canneal_big4.champsimtrace")
*** Reached end of trace: (3, "traces/canneal_big3.champsimtrace")
*** Reached end of trace: (5, "traces/canneal_big0.champsimtrace")
Heartbeat CPU 5 instructions: 270000053 cycles: 128876143 heartbeat IPC: 2.077 cumulative IPC: 2.091 (Simulation time: 04 hr 54 min 30 sec)
*** Reached end of trace: (0, "traces/canneal_big0.champsimtrace")
*** Reached end of trace: (2, "traces/canneal_big2.champsimtrace")
*** Reached end of trace: (7, "traces/canneal_big2.champsimtrace")
*** Reached end of trace: (4, "traces/canneal_big4.champsimtrace")
*** Reached end of trace: (3, "traces/canneal_big3.champsimtrace")
Heartbeat CPU 2 instructions: 520000001 cycles: 130005209 heartbeat IPC: 4 cumulative IPC: 4 (Simulation time: 04 hr 57 min 09 sec)
Heartbeat CPU 7 instructions: 520000001 cycles: 130005215 heartbeat IPC: 4 cumulative IPC: 4 (Simulation time: 04 hr 57 min 09 sec)
Heartbeat CPU 4 instructions: 520000001 cycles: 130005240 heartbeat IPC: 4 cumulative IPC: 4 (Simulation time: 04 hr 57 min 09 sec)
Heartbeat CPU 3 instructions: 520000001 cycles: 130005262 heartbeat IPC: 4 cumulative IPC: 4 (Simulation time: 04 hr 57 min 09 sec)
*** Reached end of trace: (2, "traces/canneal_big2.champsimtrace")
*** Reached end of trace: (7, "traces/canneal_big2.champsimtrace")
*** Reached end of trace: (4, "traces/canneal_big4.champsimtrace")
*** Reached end of trace: (3, "traces/canneal_big3.champsimtrace")
*** Reached end of trace: (5, "traces/canneal_big0.champsimtrace")
*** Reached end of trace: (0, "traces/canneal_big0.champsimtrace")
Heartbeat CPU 0 instructions: 280000069 cycles: 131795125 heartbeat IPC: 2.1 cumulative IPC: 2.121 (Simulation time: 05 hr 01 min 14 sec)
*** Reached end of trace: (2, "traces/canneal_big2.champsimtrace")
*** Reached end of trace: (7, "traces/canneal_big2.champsimtrace")
*** Reached end of trace: (4, "traces/canneal_big4.champsimtrace")
*** Reached end of trace: (3, "traces/canneal_big3.champsimtrace")
Heartbeat CPU 2 instructions: 530000001 cycles: 132505209 heartbeat IPC: 4 cumulative IPC: 4 (Simulation time: 05 hr 02 min 54 sec)
Heartbeat CPU 7 instructions: 530000001 cycles: 132505215 heartbeat IPC: 4 cumulative IPC: 4 (Simulation time: 05 hr 02 min 54 sec)
Heartbeat CPU 4 instructions: 530000001 cycles: 132505240 heartbeat IPC: 4 cumulative IPC: 4 (Simulation time: 05 hr 02 min 54 sec)
Heartbeat CPU 3 instructions: 530000001 cycles: 132505262 heartbeat IPC: 4 cumulative IPC: 4 (Simulation time: 05 hr 02 min 54 sec)
*** Reached end of trace: (5, "traces/canneal_big0.champsimtrace")
Heartbeat CPU 5 instructions: 280000054 cycles: 133689840 heartbeat IPC: 2.077 cumulative IPC: 2.091 (Simulation time: 05 hr 05 min 34 sec)
*** Reached end of trace: (2, "traces/canneal_big2.champsimtrace")
*** Reached end of trace: (7, "traces/canneal_big2.champsimtrace")
*** Reached end of trace: (4, "traces/canneal_big4.champsimtrace")
*** Reached end of trace: (3, "traces/canneal_big3.champsimtrace")
*** Reached end of trace: (0, "traces/canneal_big0.champsimtrace")
*** Reached end of trace: (2, "traces/canneal_big2.champsimtrace")
*** Reached end of trace: (7, "traces/canneal_big2.champsimtrace")
*** Reached end of trace: (4, "traces/canneal_big4.champsimtrace")
*** Reached end of trace: (3, "traces/canneal_big3.champsimtrace")
Heartbeat CPU 2 instructions: 540000001 cycles: 135005209 heartbeat IPC: 4 cumulative IPC: 4 (Simulation time: 05 hr 08 min 38 sec)
Heartbeat CPU 7 instructions: 540000001 cycles: 135005215 heartbeat IPC: 4 cumulative IPC: 4 (Simulation time: 05 hr 08 min 38 sec)
Heartbeat CPU 4 instructions: 540000001 cycles: 135005240 heartbeat IPC: 4 cumulative IPC: 4 (Simulation time: 05 hr 08 min 38 sec)
Heartbeat CPU 3 instructions: 540000001 cycles: 135005262 heartbeat IPC: 4 cumulative IPC: 4 (Simulation time: 05 hr 08 min 38 sec)
*** Reached end of trace: (5, "traces/canneal_big0.champsimtrace")
*** Reached end of trace: (2, "traces/canneal_big2.champsimtrace")
*** Reached end of trace: (7, "traces/canneal_big2.champsimtrace")
*** Reached end of trace: (4, "traces/canneal_big4.champsimtrace")
*** Reached end of trace: (3, "traces/canneal_big3.champsimtrace")
*** Reached end of trace: (0, "traces/canneal_big0.champsimtrace")
Heartbeat CPU 0 instructions: 290000072 cycles: 136537473 heartbeat IPC: 2.109 cumulative IPC: 2.121 (Simulation time: 05 hr 12 min 06 sec)
*** Reached end of trace: (2, "traces/canneal_big2.champsimtrace")
*** Reached end of trace: (7, "traces/canneal_big2.champsimtrace")
*** Reached end of trace: (4, "traces/canneal_big4.champsimtrace")
*** Reached end of trace: (3, "traces/canneal_big3.champsimtrace")
Heartbeat CPU 2 instructions: 550000001 cycles: 137505209 heartbeat IPC: 4 cumulative IPC: 4 (Simulation time: 05 hr 14 min 20 sec)
Heartbeat CPU 7 instructions: 550000001 cycles: 137505215 heartbeat IPC: 4 cumulative IPC: 4 (Simulation time: 05 hr 14 min 20 sec)
Heartbeat CPU 4 instructions: 550000001 cycles: 137505240 heartbeat IPC: 4 cumulative IPC: 4 (Simulation time: 05 hr 14 min 20 sec)
Heartbeat CPU 3 instructions: 550000001 cycles: 137505262 heartbeat IPC: 4 cumulative IPC: 4 (Simulation time: 05 hr 14 min 20 sec)
*** Reached end of trace: (5, "traces/canneal_big0.champsimtrace")
Heartbeat CPU 5 instructions: 290000054 cycles: 138505382 heartbeat IPC: 2.077 cumulative IPC: 2.09 (Simulation time: 05 hr 16 min 33 sec)
*** Reached end of trace: (2, "traces/canneal_big2.champsimtrace")
*** Reached end of trace: (7, "traces/canneal_big2.champsimtrace")
*** Reached end of trace: (4, "traces/canneal_big4.champsimtrace")
*** Reached end of trace: (3, "traces/canneal_big3.champsimtrace")
*** Reached end of trace: (0, "traces/canneal_big0.champsimtrace")
*** Reached end of trace: (2, "traces/canneal_big2.champsimtrace")
*** Reached end of trace: (7, "traces/canneal_big2.champsimtrace")
*** Reached end of trace: (4, "traces/canneal_big4.champsimtrace")
*** Reached end of trace: (3, "traces/canneal_big3.champsimtrace")
Heartbeat CPU 2 instructions: 560000001 cycles: 140005209 heartbeat IPC: 4 cumulative IPC: 4 (Simulation time: 05 hr 20 min 02 sec)
Heartbeat CPU 7 instructions: 560000001 cycles: 140005215 heartbeat IPC: 4 cumulative IPC: 4 (Simulation time: 05 hr 20 min 02 sec)
Heartbeat CPU 4 instructions: 560000001 cycles: 140005240 heartbeat IPC: 4 cumulative IPC: 4 (Simulation time: 05 hr 20 min 02 sec)
Heartbeat CPU 3 instructions: 560000001 cycles: 140005262 heartbeat IPC: 4 cumulative IPC: 4 (Simulation time: 05 hr 20 min 02 sec)
*** Reached end of trace: (5, "traces/canneal_big0.champsimtrace")
*** Reached end of trace: (2, "traces/canneal_big2.champsimtrace")
*** Reached end of trace: (7, "traces/canneal_big2.champsimtrace")
*** Reached end of trace: (4, "traces/canneal_big4.champsimtrace")
*** Reached end of trace: (3, "traces/canneal_big3.champsimtrace")
*** Reached end of trace: (0, "traces/canneal_big0.champsimtrace")
Heartbeat CPU 0 instructions: 300000075 cycles: 141304394 heartbeat IPC: 2.098 cumulative IPC: 2.12 (Simulation time: 05 hr 22 min 58 sec)
*** Reached end of trace: (2, "traces/canneal_big2.champsimtrace")
[...]
cpu5->cpu5_L2C PREFETCH     ACCESS:          0 HIT:          0 MISS:          0 MSHR_MERGE:          0
cpu5->cpu5_L2C WRITE        ACCESS:    6587810 HIT:    6587810 MISS:          0 MSHR_MERGE:          0
cpu5->cpu5_L2C TRANSLATION  ACCESS:         13 HIT:          0 MISS:         13 MSHR_MERGE:          0
cpu5->cpu5_L2C PREFETCH REQUESTED:          0 ISSUED:          0 USEFUL:          0 USELESS:          0
cpu5->cpu5_L2C AVERAGE MISS LATENCY: 369.1 cycles
cpu5->cpu5_L1I TOTAL        ACCESS:  200759697 HIT:  200285742 MISS:     473955 MSHR_MERGE:     122492
cpu5->cpu5_L1I LOAD         ACCESS:  200759697 HIT:  200285742 MISS:     473955 MSHR_MERGE:     122492
cpu5->cpu5_L1I RFO          ACCESS:          0 HIT:          0 MISS:          0 MSHR_MERGE:          0
cpu5->cpu5_L1I PREFETCH     ACCESS:          0 HIT:          0 MISS:          0 MSHR_MERGE:          0
cpu5->cpu5_L1I WRITE        ACCESS:          0 HIT:          0 MISS:          0 MSHR_MERGE:          0
cpu5->cpu5_L1I TRANSLATION  ACCESS:          0 HIT:          0 MISS:          0 MSHR_MERGE:          0
cpu5->cpu5_L1I PREFETCH REQUESTED:          0 ISSUED:          0 USEFUL:          0 USELESS:          0
cpu5->cpu5_L1I AVERAGE MISS LATENCY: 70.88 cycles
cpu5->cpu5_L1D TOTAL        ACCESS:  249004674 HIT:  202777765 MISS:   46226909 MSHR_MERGE:   37632369
cpu5->cpu5_L1D LOAD         ACCESS:   23551773 HIT:   20638584 MISS:    2913189 MSHR_MERGE:     814818
cpu5->cpu5_L1D RFO          ACCESS:          0 HIT:          0 MISS:          0 MSHR_MERGE:          0
cpu5->cpu5_L1D PREFETCH     ACCESS:          0 HIT:          0 MISS:          0 MSHR_MERGE:          0
cpu5->cpu5_L1D WRITE        ACCESS:  225452877 HIT:  182139170 MISS:   43313707 MSHR_MERGE:   36817551
cpu5->cpu5_L1D TRANSLATION  ACCESS:         24 HIT:         11 MISS:         13 MSHR_MERGE:          0
cpu5->cpu5_L1D PREFETCH REQUESTED:          0 ISSUED:          0 USEFUL:          0 USELESS:          0
cpu5->cpu5_L1D AVERAGE MISS LATENCY: 348.6 cycles
cpu5->cpu5_ITLB TOTAL        ACCESS:  168822608 HIT:  168754429 MISS:      68179 MSHR_MERGE:      23890
cpu5->cpu5_ITLB LOAD         ACCESS:  168822608 HIT:  168754429 MISS:      68179 MSHR_MERGE:      23890
cpu5->cpu5_ITLB RFO          ACCESS:          0 HIT:          0 MISS:          0 MSHR_MERGE:          0
cpu5->cpu5_ITLB PREFETCH     ACCESS:          0 HIT:          0 MISS:          0 MSHR_MERGE:          0
cpu5->cpu5_ITLB WRITE        ACCESS:          0 HIT:          0 MISS:          0 MSHR_MERGE:          0
cpu5->cpu5_ITLB TRANSLATION  ACCESS:          0 HIT:          0 MISS:          0 MSHR_MERGE:          0
cpu5->cpu5_ITLB PREFETCH REQUESTED:          0 ISSUED:          0 USEFUL:          0 USELESS:          0
cpu5->cpu5_ITLB AVERAGE MISS LATENCY: 4.024 cycles
cpu5->cpu5_DTLB TOTAL        ACCESS:  202804925 HIT:  202242610 MISS:     562315 MSHR_MERGE:     122159
cpu5->cpu5_DTLB LOAD         ACCESS:  202804925 HIT:  202242610 MISS:     562315 MSHR_MERGE:     122159
cpu5->cpu5_DTLB RFO          ACCESS:          0 HIT:          0 MISS:          0 MSHR_MERGE:          0
cpu5->cpu5_DTLB PREFETCH     ACCESS:          0 HIT:          0 MISS:          0 MSHR_MERGE:          0
cpu5->cpu5_DTLB WRITE        ACCESS:          0 HIT:          0 MISS:          0 MSHR_MERGE:          0
cpu5->cpu5_DTLB TRANSLATION  ACCESS:          0 HIT:          0 MISS:          0 MSHR_MERGE:          0
cpu5->cpu5_DTLB PREFETCH REQUESTED:          0 ISSUED:          0 USEFUL:          0 USELESS:          0
cpu5->cpu5_DTLB AVERAGE MISS LATENCY: 4.049 cycles
cpu4->cpu4_L1I TOTAL        ACCESS:  333130642 HIT:  333130642 MISS:          0 MSHR_MERGE:          0
cpu4->cpu4_L1I LOAD         ACCESS:  333130642 HIT:  333130642 MISS:          0 MSHR_MERGE:          0
cpu4->cpu4_L1I RFO          ACCESS:          0 HIT:          0 MISS:          0 MSHR_MERGE:          0
cpu4->cpu4_L1I PREFETCH     ACCESS:          0 HIT:          0 MISS:          0 MSHR_MERGE:          0
cpu4->cpu4_L1I WRITE        ACCESS:          0 HIT:          0 MISS:          0 MSHR_MERGE:          0
cpu4->cpu4_L1I TRANSLATION  ACCESS:          0 HIT:          0 MISS:          0 MSHR_MERGE:          0
cpu4->cpu4_L1I PREFETCH REQUESTED:          0 ISSUED:          0 USEFUL:          0 USELESS:          0
cpu4->cpu4_L1I AVERAGE MISS LATENCY: - cycles
cpu4->cpu4_ITLB TOTAL        ACCESS:  277045225 HIT:  277045225 MISS:          0 MSHR_MERGE:          0
cpu4->cpu4_ITLB LOAD         ACCESS:  277045225 HIT:  277045225 MISS:          0 MSHR_MERGE:          0
cpu4->cpu4_ITLB RFO          ACCESS:          0 HIT:          0 MISS:          0 MSHR_MERGE:          0
cpu4->cpu4_ITLB PREFETCH     ACCESS:          0 HIT:          0 MISS:          0 MSHR_MERGE:          0
cpu4->cpu4_ITLB WRITE        ACCESS:          0 HIT:          0 MISS:          0 MSHR_MERGE:          0
cpu4->cpu4_ITLB TRANSLATION  ACCESS:          0 HIT:          0 MISS:          0 MSHR_MERGE:          0
cpu4->cpu4_ITLB PREFETCH REQUESTED:          0 ISSUED:          0 USEFUL:          0 USELESS:          0
cpu4->cpu4_ITLB AVERAGE MISS LATENCY: - cycles
cpu3->cpu3_L1I TOTAL        ACCESS:  356412483 HIT:  356412483 MISS:          0 MSHR_MERGE:          0
cpu3->cpu3_L1I LOAD         ACCESS:  356412483 HIT:  356412483 MISS:          0 MSHR_MERGE:          0
cpu3->cpu3_L1I RFO          ACCESS:          0 HIT:          0 MISS:          0 MSHR_MERGE:          0
cpu3->cpu3_L1I PREFETCH     ACCESS:          0 HIT:          0 MISS:          0 MSHR_MERGE:          0
cpu3->cpu3_L1I WRITE        ACCESS:          0 HIT:          0 MISS:          0 MSHR_MERGE:          0
cpu3->cpu3_L1I TRANSLATION  ACCESS:          0 HIT:          0 MISS:          0 MSHR_MERGE:          0
cpu3->cpu3_L1I PREFETCH REQUESTED:          0 ISSUED:          0 USEFUL:          0 USELESS:          0
cpu3->cpu3_L1I AVERAGE MISS LATENCY: - cycles
cpu3->cpu3_ITLB TOTAL        ACCESS:  297472991 HIT:  297472991 MISS:          0 MSHR_MERGE:          0
cpu3->cpu3_ITLB LOAD         ACCESS:  297472991 HIT:  297472991 MISS:          0 MSHR_MERGE:          0
cpu3->cpu3_ITLB RFO          ACCESS:          0 HIT:          0 MISS:          0 MSHR_MERGE:          0
cpu3->cpu3_ITLB PREFETCH     ACCESS:          0 HIT:          0 MISS:          0 MSHR_MERGE:          0
cpu3->cpu3_ITLB WRITE        ACCESS:          0 HIT:          0 MISS:          0 MSHR_MERGE:          0
cpu3->cpu3_ITLB TRANSLATION  ACCESS:          0 HIT:          0 MISS:          0 MSHR_MERGE:          0
cpu3->cpu3_ITLB PREFETCH REQUESTED:          0 ISSUED:          0 USEFUL:          0 USELESS:          0
cpu3->cpu3_ITLB AVERAGE MISS LATENCY: - cycles
cpu2->cpu2_L1I TOTAL        ACCESS:  328137222 HIT:  328137222 MISS:          0 MSHR_MERGE:          0
cpu2->cpu2_L1I LOAD         ACCESS:  328137222 HIT:  328137222 MISS:          0 MSHR_MERGE:          0
cpu2->cpu2_L1I RFO          ACCESS:          0 HIT:          0 MISS:          0 MSHR_MERGE:          0
cpu2->cpu2_L1I PREFETCH     ACCESS:          0 HIT:          0 MISS:          0 MSHR_MERGE:          0
cpu2->cpu2_L1I WRITE        ACCESS:          0 HIT:          0 MISS:          0 MSHR_MERGE:          0
cpu2->cpu2_L1I TRANSLATION  ACCESS:          0 HIT:          0 MISS:          0 MSHR_MERGE:          0
cpu2->cpu2_L1I PREFETCH REQUESTED:          0 ISSUED:          0 USEFUL:          0 USELESS:          0
cpu2->cpu2_L1I AVERAGE MISS LATENCY: - cycles
cpu2->cpu2_ITLB TOTAL        ACCESS:  285337554 HIT:  285337554 MISS:          0 MSHR_MERGE:          0
cpu2->cpu2_ITLB LOAD         ACCESS:  285337554 HIT:  285337554 MISS:          0 MSHR_MERGE:          0
cpu2->cpu2_ITLB RFO          ACCESS:          0 HIT:          0 MISS:          0 MSHR_MERGE:          0
cpu2->cpu2_ITLB PREFETCH     ACCESS:          0 HIT:          0 MISS:          0 MSHR_MERGE:          0
cpu2->cpu2_ITLB WRITE        ACCESS:          0 HIT:          0 MISS:          0 MSHR_MERGE:          0
cpu2->cpu2_ITLB TRANSLATION  ACCESS:          0 HIT:          0 MISS:          0 MSHR_MERGE:          0
cpu2->cpu2_ITLB PREFETCH REQUESTED:          0 ISSUED:          0 USEFUL:          0 USELESS:          0
cpu2->cpu2_ITLB AVERAGE MISS LATENCY: - cycles
cpu1->cpu1_STLB TOTAL        ACCESS:    2229814 HIT:    2032863 MISS:     196951 MSHR_MERGE:          0
cpu1->cpu1_STLB LOAD         ACCESS:    2229814 HIT:    2032863 MISS:     196951 MSHR_MERGE:          0
cpu1->cpu1_STLB RFO          ACCESS:          0 HIT:          0 MISS:          0 MSHR_MERGE:          0
cpu1->cpu1_STLB PREFETCH     ACCESS:          0 HIT:          0 MISS:          0 MSHR_MERGE:          0
cpu1->cpu1_STLB WRITE        ACCESS:          0 HIT:          0 MISS:          0 MSHR_MERGE:          0
cpu1->cpu1_STLB TRANSLATION  ACCESS:          0 HIT:          0 MISS:          0 MSHR_MERGE:          0
cpu1->cpu1_STLB PREFETCH REQUESTED:          0 ISSUED:          0 USEFUL:          0 USELESS:          0
cpu1->cpu1_STLB AVERAGE MISS LATENCY: 919.1 cycles
cpu1->cpu1_L2C TOTAL        ACCESS:    2361735 HIT:     412347 MISS:    1949388 MSHR_MERGE:          0
cpu1->cpu1_L2C LOAD         ACCESS:    1971445 HIT:     411222 MISS:    1560223 MSHR_MERGE:          0
cpu1->cpu1_L2C RFO          ACCESS:          0 HIT:          0 MISS:          0 MSHR_MERGE:          0
cpu1->cpu1_L2C PREFETCH     ACCESS:          0 HIT:          0 MISS:          0 MSHR_MERGE:          0
cpu1->cpu1_L2C WRITE        ACCESS:          0 HIT:          0 MISS:          0 MSHR_MERGE:          0
cpu1->cpu1_L2C TRANSLATION  ACCESS:     390290 HIT:       1125 MISS:     389165 MSHR_MERGE:          0
cpu1->cpu1_L2C PREFETCH REQUESTED:          0 ISSUED:          0 USEFUL:          0 USELESS:          0
cpu1->cpu1_L2C AVERAGE MISS LATENCY: 473.6 cycles
cpu1->cpu1_L1I TOTAL        ACCESS:   33834216 HIT:   31685853 MISS:    2148363 MSHR_MERGE:     176918
cpu1->cpu1_L1I LOAD         ACCESS:   33834216 HIT:   31685853 MISS:    2148363 MSHR_MERGE:     176918
cpu1->cpu1_L1I RFO          ACCESS:          0 HIT:          0 MISS:          0 MSHR_MERGE:          0
cpu1->cpu1_L1I PREFETCH     ACCESS:          0 HIT:          0 MISS:          0 MSHR_MERGE:          0
cpu1->cpu1_L1I WRITE        ACCESS:          0 HIT:          0 MISS:          0 MSHR_MERGE:          0
cpu1->cpu1_L1I TRANSLATION  ACCESS:          0 HIT:          0 MISS:          0 MSHR_MERGE:          0
cpu1->cpu1_L1I PREFETCH REQUESTED:          0 ISSUED:          0 USEFUL:          0 USELESS:          0
cpu1->cpu1_L1I AVERAGE MISS LATENCY: 387.4 cycles
cpu1->cpu1_L1D TOTAL        ACCESS:     394043 HIT:       3753 MISS:     390290 MSHR_MERGE:          0
cpu1->cpu1_L1D LOAD         ACCESS:          0 HIT:          0 MISS:          0 MSHR_MERGE:          0
cpu1->cpu1_L1D RFO          ACCESS:          0 HIT:          0 MISS:          0 MSHR_MERGE:          0
cpu1->cpu1_L1D PREFETCH     ACCESS:          0 HIT:          0 MISS:          0 MSHR_MERGE:          0
cpu1->cpu1_L1D WRITE        ACCESS:          0 HIT:          0 MISS:          0 MSHR_MERGE:          0
cpu1->cpu1_L1D TRANSLATION  ACCESS:     394043 HIT:       3753 MISS:     390290 MSHR_MERGE:          0
cpu1->cpu1_L1D PREFETCH REQUESTED:          0 ISSUED:          0 USEFUL:          0 USELESS:          0
cpu1->cpu1_L1D AVERAGE MISS LATENCY: 456 cycles
cpu1->cpu1_ITLB TOTAL        ACCESS:   33305899 HIT:   31024975 MISS:    2280924 MSHR_MERGE:      51110
cpu1->cpu1_ITLB LOAD         ACCESS:   33305899 HIT:   31024975 MISS:    2280924 MSHR_MERGE:      51110
cpu1->cpu1_ITLB RFO          ACCESS:          0 HIT:          0 MISS:          0 MSHR_MERGE:          0
cpu1->cpu1_ITLB PREFETCH     ACCESS:          0 HIT:          0 MISS:          0 MSHR_MERGE:          0
cpu1->cpu1_ITLB WRITE        ACCESS:          0 HIT:          0 MISS:          0 MSHR_MERGE:          0
cpu1->cpu1_ITLB TRANSLATION  ACCESS:          0 HIT:          0 MISS:          0 MSHR_MERGE:          0
cpu1->cpu1_ITLB PREFETCH REQUESTED:          0 ISSUED:          0 USEFUL:          0 USELESS:          0
cpu1->cpu1_ITLB AVERAGE MISS LATENCY: 85.27 cycles
cpu0->cpu0_STLB TOTAL        ACCESS:     491699 HIT:     491686 MISS:         13 MSHR_MERGE:          0
cpu0->cpu0_STLB LOAD         ACCESS:     491699 HIT:     491686 MISS:         13 MSHR_MERGE:          0
cpu0->cpu0_STLB RFO          ACCESS:          0 HIT:          0 MISS:          0 MSHR_MERGE:          0
cpu0->cpu0_STLB PREFETCH     ACCESS:          0 HIT:          0 MISS:          0 MSHR_MERGE:          0
cpu0->cpu0_STLB WRITE        ACCESS:          0 HIT:          0 MISS:          0 MSHR_MERGE:          0
cpu0->cpu0_STLB TRANSLATION  ACCESS:          0 HIT:          0 MISS:          0 MSHR_MERGE:          0
cpu0->cpu0_STLB PREFETCH REQUESTED:          0 ISSUED:          0 USEFUL:          0 USELESS:          0
cpu0->cpu0_STLB AVERAGE MISS LATENCY: 922.8 cycles
cpu0->cpu0_L2C TOTAL        ACCESS:   15759543 HIT:    7640836 MISS:    8118707 MSHR_MERGE:          0
cpu0->cpu0_L2C LOAD         ACCESS:    2487664 HIT:     835399 MISS:    1652265 MSHR_MERGE:          0
cpu0->cpu0_L2C RFO          ACCESS:    6586839 HIT:     120674 MISS:    6466165 MSHR_MERGE:          0
cpu0->cpu0_L2C PREFETCH     ACCESS:          0 HIT:          0 MISS:          0 MSHR_MERGE:          0
cpu0->cpu0_L2C WRITE        ACCESS:    6685026 HIT:    6684763 MISS:        263 MSHR_MERGE:          0
cpu0->cpu0_L2C TRANSLATION  ACCESS:         14 HIT:          0 MISS:         14 MSHR_MERGE:          0
cpu0->cpu0_L2C PREFETCH REQUESTED:          0 ISSUED:          0 USEFUL:          0 USELESS:          0
cpu0->cpu0_L2C AVERAGE MISS LATENCY: 374.6 cycles
cpu0->cpu0_L1I TOTAL        ACCESS:  221131544 HIT:  220649808 MISS:     481736 MSHR_MERGE:     124845
cpu0->cpu0_L1I LOAD         ACCESS:  221131544 HIT:  220649808 MISS:     481736 MSHR_MERGE:     124845
cpu0->cpu0_L1I RFO          ACCESS:          0 HIT:          0 MISS:          0 MSHR_MERGE:          0
cpu0->cpu0_L1I PREFETCH     ACCESS:          0 HIT:          0 MISS:          0 MSHR_MERGE:          0
cpu0->cpu0_L1I WRITE        ACCESS:          0 HIT:          0 MISS:          0 MSHR_MERGE:          0
cpu0->cpu0_L1I TRANSLATION  ACCESS:          0 HIT:          0 MISS:          0 MSHR_MERGE:          0
cpu0->cpu0_L1I PREFETCH REQUESTED:          0 ISSUED:          0 USEFUL:          0 USELESS:          0
cpu0->cpu0_L1I AVERAGE MISS LATENCY: 62.97 cycles
cpu0->cpu0_L1D TOTAL        ACCESS:  253053662 HIT:  206041213 MISS:   47012449 MSHR_MERGE:   38289823
cpu0->cpu0_L1D LOAD         ACCESS:   24402006 HIT:   21392079 MISS:    3009927 MSHR_MERGE:     879154
cpu0->cpu0_L1D RFO          ACCESS:          0 HIT:          0 MISS:          0 MSHR_MERGE:          0
cpu0->cpu0_L1D PREFETCH     ACCESS:          0 HIT:          0 MISS:          0 MSHR_MERGE:          0
cpu0->cpu0_L1D WRITE        ACCESS:  228651630 HIT:  184649122 MISS:   44002508 MSHR_MERGE:   37410669
cpu0->cpu0_L1D TRANSLATION  ACCESS:         26 HIT:         12 MISS:         14 MSHR_MERGE:          0
cpu0->cpu0_L1D PREFETCH REQUESTED:          0 ISSUED:          0 USEFUL:          0 USELESS:          0
cpu0->cpu0_L1D AVERAGE MISS LATENCY: 354.3 cycles
cpu0->cpu0_ITLB TOTAL        ACCESS:  184159667 HIT:  184086016 MISS:      73651 MSHR_MERGE:      28678
cpu0->cpu0_ITLB LOAD         ACCESS:  184159667 HIT:  184086016 MISS:      73651 MSHR_MERGE:      28678
cpu0->cpu0_ITLB RFO          ACCESS:          0 HIT:          0 MISS:          0 MSHR_MERGE:          0
cpu0->cpu0_ITLB PREFETCH     ACCESS:          0 HIT:          0 MISS:          0 MSHR_MERGE:          0
cpu0->cpu0_ITLB WRITE        ACCESS:          0 HIT:          0 MISS:          0 MSHR_MERGE:          0
cpu0->cpu0_ITLB TRANSLATION  ACCESS:          0 HIT:          0 MISS:          0 MSHR_MERGE:          0
cpu0->cpu0_ITLB PREFETCH REQUESTED:          0 ISSUED:          0 USEFUL:          0 USELESS:          0
cpu0->cpu0_ITLB AVERAGE MISS LATENCY: 4.008 cycles
cpu0->cpu0_DTLB TOTAL        ACCESS:  210750256 HIT:  210175186 MISS:     575070 MSHR_MERGE:     128344
cpu0->cpu0_DTLB LOAD         ACCESS:  210750256 HIT:  210175186 MISS:     575070 MSHR_MERGE:     128344
cpu0->cpu0_DTLB RFO          ACCESS:          0 HIT:          0 MISS:          0 MSHR_MERGE:          0
cpu0->cpu0_DTLB PREFETCH     ACCESS:          0 HIT:          0 MISS:          0 MSHR_MERGE:          0
cpu0->cpu0_DTLB WRITE        ACCESS:          0 HIT:          0 MISS:          0 MSHR_MERGE:          0
cpu0->cpu0_DTLB TRANSLATION  ACCESS:          0 HIT:          0 MISS:          0 MSHR_MERGE:          0
cpu0->cpu0_DTLB PREFETCH REQUESTED:          0 ISSUED:          0 USEFUL:          0 USELESS:          0
cpu0->cpu0_DTLB AVERAGE MISS LATENCY: 4.027 cycles
cpu0->LLC TOTAL        ACCESS:   14653991 HIT:    3188857 MISS:   11465134 MSHR_MERGE:          0
cpu0->LLC LOAD         ACCESS:    1652265 HIT:    1517876 MISS:     134389 MSHR_MERGE:          0
cpu0->LLC RFO          ACCESS:    6466165 HIT:     801521 MISS:    5664644 MSHR_MERGE:          0
cpu0->LLC PREFETCH     ACCESS:          0 HIT:          0 MISS:          0 MSHR_MERGE:          0
cpu0->LLC WRITE        ACCESS:    6535547 HIT:     869460 MISS:    5666087 MSHR_MERGE:          0
cpu0->LLC TRANSLATION  ACCESS:         14 HIT:          0 MISS:         14 MSHR_MERGE:          0
cpu0->LLC PREFETCH REQUESTED:          0 ISSUED:          0 USEFUL:          0 USELESS:          0
cpu0->LLC AVERAGE MISS LATENCY: 628.4 cycles
cpu1->LLC TOTAL        ACCESS:    1949388 HIT:     205548 MISS:    1743840 MSHR_MERGE:          0
cpu1->LLC LOAD         ACCESS:    1560223 HIT:     156916 MISS:    1403307 MSHR_MERGE:          0
cpu1->LLC RFO          ACCESS:          0 HIT:          0 MISS:          0 MSHR_MERGE:          0
cpu1->LLC PREFETCH     ACCESS:          0 HIT:          0 MISS:          0 MSHR_MERGE:          0
cpu1->LLC WRITE        ACCESS:          0 HIT:          0 MISS:          0 MSHR_MERGE:          0
cpu1->LLC TRANSLATION  ACCESS:     389165 HIT:      48632 MISS:     340533 MSHR_MERGE:          0
cpu1->LLC PREFETCH REQUESTED:          0 ISSUED:          0 USEFUL:          0 USELESS:          0
cpu1->LLC AVERAGE MISS LATENCY: 4131 cycles
cpu5->LLC TOTAL        ACCESS:   14430777 HIT:    3077966 MISS:   11352811 MSHR_MERGE:          0
cpu5->LLC LOAD         ACCESS:    1621581 HIT:    1468271 MISS:     153310 MSHR_MERGE:          0
cpu5->LLC RFO          ACCESS:    6370616 HIT:     771695 MISS:    5598921 MSHR_MERGE:          0
cpu5->LLC PREFETCH     ACCESS:          0 HIT:          0 MISS:          0 MSHR_MERGE:          0
cpu5->LLC WRITE        ACCESS:    6438567 HIT:     838000 MISS:    5600567 MSHR_MERGE:          0
cpu5->LLC TRANSLATION  ACCESS:         13 HIT:          0 MISS:         13 MSHR_MERGE:          0
cpu5->LLC PREFETCH REQUESTED:          0 ISSUED:          0 USEFUL:          0 USELESS:          0
cpu5->LLC AVERAGE MISS LATENCY: 634.6 cycles
cpu6->LLC TOTAL        ACCESS:    1942945 HIT:     210751 MISS:    1732194 MSHR_MERGE:          0
cpu6->LLC LOAD         ACCESS:    1555257 HIT:     162978 MISS:    1392279 MSHR_MERGE:          0
cpu6->LLC RFO          ACCESS:          0 HIT:          0 MISS:          0 MSHR_MERGE:          0
cpu6->LLC PREFETCH     ACCESS:          0 HIT:          0 MISS:          0 MSHR_MERGE:          0
cpu6->LLC WRITE        ACCESS:          0 HIT:          0 MISS:          0 MSHR_MERGE:          0
cpu6->LLC TRANSLATION  ACCESS:     387688 HIT:      47773 MISS:     339915 MSHR_MERGE:          0
cpu6->LLC PREFETCH REQUESTED:          0 ISSUED:          0 USEFUL:          0 USELESS:          0
cpu6->LLC AVERAGE MISS LATENCY: 4159 cycles

DRAM Statistics

Channel 0 RQ ROW_BUFFER_HIT:     689118
  ROW_BUFFER_MISS:   14338195
  AVG DBUS CONGESTED CYCLE: 7.253
Channel 0 WQ ROW_BUFFER_HIT:    1489659
  ROW_BUFFER_MISS:    9776561
  FULL:    1363608
Channel 0 REFRESHES ISSUED:      51720
