[VMEM] WARNING: physical memory size is smaller than virtual memory size.

*** ChampSim Multicore Out-of-Order Simulator ***
Warmup Instructions: 200000000
Simulation Instructions: 50000000
Number of CPUs: 4
Page size: 4096

Off-chip DRAM Size: 16 GiB Channels: 1 Width: 64-bit Data Rate: 3205 MT/s
*** Reached end of trace: (2, "traces/canneal_big2.champsimtrace")
*** Reached end of trace: (3, "traces/canneal_big3.champsimtrace")
*** Reached end of trace: (0, "traces/canneal_big0.champsimtrace")
*** Reached end of trace: (2, "traces/canneal_big2.champsimtrace")
*** Reached end of trace: (3, "traces/canneal_big3.champsimtrace")
Heartbeat CPU 2 instructions: 10000001 cycles: 2504204 heartbeat IPC: 3.993 cumulative IPC: 3.993 (Simulation time: 00 hr 04 min 11 sec)
Heartbeat CPU 3 instructions: 10000001 cycles: 2504251 heartbeat IPC: 3.993 cumulative IPC: 3.993 (Simulation time: 00 hr 04 min 11 sec)
*** Reached end of trace: (2, "traces/canneal_big2.champsimtrace")
*** Reached end of trace: (3, "traces/canneal_big3.champsimtrace")
*** Reached end of trace: (0, "traces/canneal_big0.champsimtrace")
Heartbeat CPU 0 instructions: 10000003 cycles: 4034607 heartbeat IPC: 2.479 cumulative IPC: 2.479 (Simulation time: 00 hr 06 min 44 sec)
*** Reached end of trace: (1, "traces/canneal_big1.champsimtrace")
*** Reached end of trace: (2, "traces/canneal_big2.champsimtrace")
*** Reached end of trace: (3, "traces/canneal_big3.champsimtrace")
Heartbeat CPU 2 instructions: 20000001 cycles: 5004204 heartbeat IPC: 4 cumulative IPC: 3.997 (Simulation time: 00 hr 08 min 28 sec)
Heartbeat CPU 3 instructions: 20000001 cycles: 5004251 heartbeat IPC: 4 cumulative IPC: 3.997 (Simulation time: 00 hr 08 min 28 sec)
*** Reached end of trace: (0, "traces/canneal_big0.champsimtrace")
*** Reached end of trace: (2, "traces/canneal_big2.champsimtrace")
*** Reached end of trace: (3, "traces/canneal_big3.champsimtrace")
*** Reached end of trace: (2, "traces/canneal_big2.champsimtrace")
*** Reached end of trace: (3, "traces/canneal_big3.champsimtrace")
Heartbeat CPU 2 instructions: 30000001 cycles: 7504204 heartbeat IPC: 4 cumulative IPC: 3.998 (Simulation time: 00 hr 12 min 46 sec)
Heartbeat CPU 3 instructions: 30000001 cycles: 7504251 heartbeat IPC: 4 cumulative IPC: 3.998 (Simulation time: 00 hr 12 min 46 sec)
*** Reached end of trace: (1, "traces/canneal_big1.champsimtrace")
Heartbeat CPU 1 instructions: 10000002 cycles: 7813893 heartbeat IPC: 1.28 cumulative IPC: 1.28 (Simulation time: 00 hr 13 min 17 sec)
*** Reached end of trace: (0, "traces/canneal_big0.champsimtrace")
Heartbeat CPU 0 instructions: 20000006 cycles: 7879553 heartbeat IPC: 2.601 cumulative IPC: 2.538 (Simulation time: 00 hr 13 min 23 sec)
*** Reached end of trace: (2, "traces/canneal_big2.champsimtrace")
*** Reached end of trace: (3, "traces/canneal_big3.champsimtrace")
*** Reached end of trace: (0, "traces/canneal_big0.champsimtrace")
*** Reached end of trace: (2, "traces/canneal_big2.champsimtrace")
*** Reached end of trace: (3, "traces/canneal_big3.champsimtrace")
Heartbeat CPU 2 instructions: 40000001 cycles: 10004204 heartbeat IPC: 4 cumulative IPC: 3.998 (Simulation time: 00 hr 17 min 09 sec)
Heartbeat CPU 3 instructions: 40000001 cycles: 10004251 heartbeat IPC: 4 cumulative IPC: 3.998 (Simulation time: 00 hr 17 min 09 sec)
*** Reached end of trace: (1, "traces/canneal_big1.champsimtrace")
*** Reached end of trace: (2, "traces/canneal_big2.champsimtrace")
*** Reached end of trace: (3, "traces/canneal_big3.champsimtrace")
*** Reached end of trace: (0, "traces/canneal_big0.champsimtrace")
Heartbeat CPU 0 instructions: 30000009 cycles: 11724729 heartbeat IPC: 2.601 cumulative IPC: 2.559 (Simulation time: 00 hr 20 min 08 sec)
*** Reached end of trace: (2, "traces/canneal_big2.champsimtrace")
*** Reached end of trace: (3, "traces/canneal_big3.champsimtrace")
Heartbeat CPU 2 instructions: 50000001 cycles: 12504204 heartbeat IPC: 4 cumulative IPC: 3.999 (Simulation time: 00 hr 21 min 33 sec)
Heartbeat CPU 3 instructions: 50000001 cycles: 12504251 heartbeat IPC: 4 cumulative IPC: 3.999 (Simulation time: 00 hr 21 min 33 sec)
*** Reached end of trace: (1, "traces/canneal_big1.champsimtrace")
Heartbeat CPU 1 instructions: 20000004 cycles: 13493213 heartbeat IPC: 1.761 cumulative IPC: 1.482 (Simulation time: 00 hr 23 min 16 sec)
*** Reached end of trace: (0, "traces/canneal_big0.champsimtrace")
*** Reached end of trace: (2, "traces/canneal_big2.champsimtrace")
*** Reached end of trace: (3, "traces/canneal_big3.champsimtrace")
*** Reached end of trace: (2, "traces/canneal_big2.champsimtrace")
*** Reached end of trace: (3, "traces/canneal_big3.champsimtrace")
Heartbeat CPU 2 instructions: 60000001 cycles: 15004204 heartbeat IPC: 4 cumulative IPC: 3.999 (Simulation time: 00 hr 26 min 00 sec)
Heartbeat CPU 3 instructions: 60000001 cycles: 15004251 heartbeat IPC: 4 cumulative IPC: 3.999 (Simulation time: 00 hr 26 min 00 sec)
*** Reached end of trace: (0, "traces/canneal_big0.champsimtrace")
Heartbeat CPU 0 instructions: 40000012 cycles: 15569885 heartbeat IPC: 2.601 cumulative IPC: 2.569 (Simulation time: 00 hr 26 min 58 sec)
*** Reached end of trace: (2, "traces/canneal_big2.champsimtrace")
*** Reached end of trace: (3, "traces/canneal_big3.champsimtrace")
*** Reached end of trace: (1, "traces/canneal_big1.champsimtrace")
*** Reached end of trace: (0, "traces/canneal_big0.champsimtrace")
*** Reached end of trace: (2, "traces/canneal_big2.champsimtrace")
*** Reached end of trace: (3, "traces/canneal_big3.champsimtrace")
Heartbeat CPU 2 instructions: 70000001 cycles: 17504204 heartbeat IPC: 4 cumulative IPC: 3.999 (Simulation time: 00 hr 30 min 26 sec)
Heartbeat CPU 3 instructions: 70000001 cycles: 17504251 heartbeat IPC: 4 cumulative IPC: 3.999 (Simulation time: 00 hr 30 min 26 sec)
*** Reached end of trace: (2, "traces/canneal_big2.champsimtrace")
*** Reached end of trace: (3, "traces/canneal_big3.champsimtrace")
*** Reached end of trace: (1, "traces/canneal_big1.champsimtrace")
Heartbeat CPU 1 instructions: 30000004 cycles: 19172469 heartbeat IPC: 1.761 cumulative IPC: 1.565 (Simulation time: 00 hr 33 min 27 sec)
*** Reached end of trace: (0, "traces/canneal_big0.champsimtrace")
Heartbeat CPU 0 instructions: 50000015 cycles: 19415251 heartbeat IPC: 2.601 cumulative IPC: 2.575 (Simulation time: 00 hr 33 min 54 sec)
*** Reached end of trace: (2, "traces/canneal_big2.champsimtrace")
*** Reached end of trace: (3, "traces/canneal_big3.champsimtrace")
Heartbeat CPU 2 instructions: 80000001 cycles: 20004204 heartbeat IPC: 4 cumulative IPC: 3.999 (Simulation time: 00 hr 34 min 59 sec)
Heartbeat CPU 3 instructions: 80000001 cycles: 20004251 heartbeat IPC: 4 cumulative IPC: 3.999 (Simulation time: 00 hr 34 min 59 sec)
*** Reached end of trace: (2, "traces/canneal_big2.champsimtrace")
*** Reached end of trace: (3, "traces/canneal_big3.champsimtrace")
*** Reached end of trace: (0, "traces/canneal_big0.champsimtrace")
*** Reached end of trace: (1, "traces/canneal_big1.champsimtrace")
*** Reached end of trace: (2, "traces/canneal_big2.champsimtrace")
*** Reached end of trace: (3, "traces/canneal_big3.champsimtrace")
Heartbeat CPU 2 instructions: 90000001 cycles: 22504204 heartbeat IPC: 4 cumulative IPC: 3.999 (Simulation time: 00 hr 39 min 25 sec)
Heartbeat CPU 3 instructions: 90000001 cycles: 22504251 heartbeat IPC: 4 cumulative IPC: 3.999 (Simulation time: 00 hr 39 min 25 sec)
*** Reached end of trace: (0, "traces/canneal_big0.champsimtrace")
Heartbeat CPU 0 instructions: 60000018 cycles: 23260622 heartbeat IPC: 2.601 cumulative IPC: 2.579 (Simulation time: 00 hr 40 min 42 sec)
*** Reached end of trace: (2, "traces/canneal_big2.champsimtrace")
*** Reached end of trace: (3, "traces/canneal_big3.champsimtrace")
*** Reached end of trace: (1, "traces/canneal_big1.champsimtrace")
Heartbeat CPU 1 instructions: 40000006 cycles: 24851740 heartbeat IPC: 1.761 cumulative IPC: 1.61 (Simulation time: 00 hr 43 min 30 sec)
*** Reached end of trace: (2, "traces/canneal_big2.champsimtrace")
*** Reached end of trace: (3, "traces/canneal_big3.champsimtrace")
Heartbeat CPU 2 instructions: 100000001 cycles: 25004204 heartbeat IPC: 4 cumulative IPC: 3.999 (Simulation time: 00 hr 43 min 44 sec)
Heartbeat CPU 3 instructions: 100000001 cycles: 25004251 heartbeat IPC: 4 cumulative IPC: 3.999 (Simulation time: 00 hr 43 min 44 sec)
*** Reached end of trace: (0, "traces/canneal_big0.champsimtrace")
*** Reached end of trace: (2, "traces/canneal_big2.champsimtrace")
*** Reached end of trace: (3, "traces/canneal_big3.champsimtrace")
*** Reached end of trace: (0, "traces/canneal_big0.champsimtrace")
Heartbeat CPU 0 instructions: 70000021 cycles: 27105858 heartbeat IPC: 2.601 cumulative IPC: 2.582 (Simulation time: 00 hr 47 min 17 sec)
*** Reached end of trace: (2, "traces/canneal_big2.champsimtrace")
*** Reached end of trace: (3, "traces/canneal_big3.champsimtrace")
Heartbeat CPU 2 instructions: 110000001 cycles: 27504204 heartbeat IPC: 4 cumulative IPC: 3.999 (Simulation time: 00 hr 48 min 02 sec)
Heartbeat CPU 3 instructions: 110000001 cycles: 27504251 heartbeat IPC: 4 cumulative IPC: 3.999 (Simulation time: 00 hr 48 min 02 sec)
*** Reached end of trace: (1, "traces/canneal_big1.champsimtrace")
*** Reached end of trace: (2, "traces/canneal_big2.champsimtrace")
*** Reached end of trace: (3, "traces/canneal_big3.champsimtrace")
*** Reached end of trace: (0, "traces/canneal_big0.champsimtrace")
*** Reached end of trace: (2, "traces/canneal_big2.champsimtrace")
*** Reached end of trace: (3, "traces/canneal_big3.champsimtrace")
Heartbeat CPU 2 instructions: 120000001 cycles: 30004204 heartbeat IPC: 4 cumulative IPC: 3.999 (Simulation time: 00 hr 52 min 22 sec)
Heartbeat CPU 3 instructions: 120000001 cycles: 30004251 heartbeat IPC: 4 cumulative IPC: 3.999 (Simulation time: 00 hr 52 min 22 sec)
*** Reached end of trace: (1, "traces/canneal_big1.champsimtrace")
Heartbeat CPU 1 instructions: 50000008 cycles: 30530996 heartbeat IPC: 1.761 cumulative IPC: 1.638 (Simulation time: 00 hr 53 min 19 sec)
*** Reached end of trace: (0, "traces/canneal_big0.champsimtrace")
Heartbeat CPU 0 instructions: 80000024 cycles: 30951629 heartbeat IPC: 2.6 cumulative IPC: 2.585 (Simulation time: 00 hr 54 min 02 sec)
*** Reached end of trace: (2, "traces/canneal_big2.champsimtrace")
*** Reached end of trace: (3, "traces/canneal_big3.champsimtrace")
*** Reached end of trace: (2, "traces/canneal_big2.champsimtrace")
*** Reached end of trace: (3, "traces/canneal_big3.champsimtrace")
Heartbeat CPU 2 instructions: 130000001 cycles: 32504204 heartbeat IPC: 4 cumulative IPC: 3.999 (Simulation time: 00 hr 56 min 50 sec)
Heartbeat CPU 3 instructions: 130000001 cycles: 32504251 heartbeat IPC: 4 cumulative IPC: 3.999 (Simulation time: 00 hr 56 min 50 sec)
*** Reached end of trace: (0, "traces/canneal_big0.champsimtrace")
*** Reached end of trace: (1, "traces/canneal_big1.champsimtrace")
*** Reached end of trace: (2, "traces/canneal_big2.champsimtrace")
*** Reached end of trace: (3, "traces/canneal_big3.champsimtrace")
*** Reached end of trace: (0, "traces/canneal_big0.champsimtrace")
Heartbeat CPU 0 instructions: 90000027 cycles: 34797570 heartbeat IPC: 2.6 cumulative IPC: 2.586 (Simulation time: 01 hr 00 min 52 sec)
*** Reached end of trace: (2, "traces/canneal_big2.champsimtrace")
*** Reached end of trace: (3, "traces/canneal_big3.champsimtrace")
Heartbeat CPU 2 instructions: 140000001 cycles: 35004204 heartbeat IPC: 4 cumulative IPC: 4 (Simulation time: 01 hr 01 min 15 sec)
Heartbeat CPU 3 instructions: 140000001 cycles: 35004251 heartbeat IPC: 4 cumulative IPC: 4 (Simulation time: 01 hr 01 min 15 sec)
*** Reached end of trace: (1, "traces/canneal_big1.champsimtrace")
Heartbeat CPU 1 instructions: 60000009 cycles: 36210237 heartbeat IPC: 1.761 cumulative IPC: 1.657 (Simulation time: 01 hr 03 min 23 sec)
*** Reached end of trace: (2, "traces/canneal_big2.champsimtrace")
*** Reached end of trace: (3, "traces/canneal_big3.champsimtrace")
*** Reached end of trace: (0, "traces/canneal_big0.champsimtrace")
*** Reached end of trace: (2, "traces/canneal_big2.champsimtrace")
*** Reached end of trace: (3, "traces/canneal_big3.champsimtrace")
Heartbeat CPU 2 instructions: 150000001 cycles: 37504204 heartbeat IPC: 4 cumulative IPC: 4 (Simulation time: 01 hr 05 min 38 sec)
Heartbeat CPU 3 instructions: 150000001 cycles: 37504251 heartbeat IPC: 4 cumulative IPC: 4 (Simulation time: 01 hr 05 min 38 sec)
*** Reached end of trace: (0, "traces/canneal_big0.champsimtrace")
Heartbeat CPU 0 instructions: 100000030 cycles: 38643451 heartbeat IPC: 2.6 cumulative IPC: 2.588 (Simulation time: 01 hr 07 min 33 sec)
*** Reached end of trace: (2, "traces/canneal_big2.champsimtrace")
*** Reached end of trace: (3, "traces/canneal_big3.champsimtrace")
*** Reached end of trace: (1, "traces/canneal_big1.champsimtrace")
*** Reached end of trace: (2, "traces/canneal_big2.champsimtrace")
*** Reached end of trace: (3, "traces/canneal_big3.champsimtrace")
Heartbeat CPU 2 instructions: 160000001 cycles: 40004204 heartbeat IPC: 4 cumulative IPC: 4 (Simulation time: 01 hr 09 min 55 sec)
Heartbeat CPU 3 instructions: 160000001 cycles: 40004251 heartbeat IPC: 4 cumulative IPC: 4 (Simulation time: 01 hr 09 min 55 sec)
*** Reached end of trace: (0, "traces/canneal_big0.champsimtrace")
*** Reached end of trace: (2, "traces/canneal_big2.champsimtrace")
*** Reached end of trace: (3, "traces/canneal_big3.champsimtrace")
*** Reached end of trace: (1, "traces/canneal_big1.champsimtrace")
Heartbeat CPU 1 instructions: 70000011 cycles: 41889399 heartbeat IPC: 1.761 cumulative IPC: 1.671 (Simulation time: 01 hr 13 min 08 sec)
*** Reached end of trace: (0, "traces/canneal_big0.champsimtrace")
Heartbeat CPU 0 instructions: 110000033 cycles: 42489442 heartbeat IPC: 2.6 cumulative IPC: 2.589 (Simulation time: 01 hr 14 min 03 sec)
*** Reached end of trace: (2, "traces/canneal_big2.champsimtrace")
*** Reached end of trace: (3, "traces/canneal_big3.champsimtrace")
Heartbeat CPU 2 instructions: 170000001 cycles: 42504204 heartbeat IPC: 4 cumulative IPC: 4 (Simulation time: 01 hr 14 min 05 sec)
Heartbeat CPU 3 instructions: 170000001 cycles: 42504251 heartbeat IPC: 4 cumulative IPC: 4 (Simulation time: 01 hr 14 min 05 sec)
*** Reached end of trace: (2, "traces/canneal_big2.champsimtrace")
*** Reached end of trace: (3, "traces/canneal_big3.champsimtrace")
*** Reached end of trace: (0, "traces/canneal_big0.champsimtrace")
*** Reached end of trace: (1, "traces/canneal_big1.champsimtrace")
*** Reached end of trace: (2, "traces/canneal_big2.champsimtrace")
*** Reached end of trace: (3, "traces/canneal_big3.champsimtrace")
Heartbeat CPU 2 instructions: 180000001 cycles: 45004204 heartbeat IPC: 4 cumulative IPC: 4 (Simulation time: 01 hr 18 min 21 sec)
Heartbeat CPU 3 instructions: 180000001 cycles: 45004251 heartbeat IPC: 4 cumulative IPC: 4 (Simulation time: 01 hr 18 min 21 sec)
*** Reached end of trace: (2, "traces/canneal_big2.champsimtrace")
*** Reached end of trace: (3, "traces/canneal_big3.champsimtrace")
*** Reached end of trace: (0, "traces/canneal_big0.champsimtrace")
Heartbeat CPU 0 instructions: 120000036 cycles: 46335353 heartbeat IPC: 2.6 cumulative IPC: 2.59 (Simulation time: 01 hr 20 min 38 sec)
*** Reached end of trace: (2, "traces/canneal_big2.champsimtrace")
*** Reached end of trace: (3, "traces/canneal_big3.champsimtrace")
Heartbeat CPU 2 instructions: 190000001 cycles: 47504204 heartbeat IPC: 4 cumulative IPC: 4 (Simulation time: 01 hr 22 min 41 sec)
Heartbeat CPU 3 instructions: 190000001 cycles: 47504251 heartbeat IPC: 4 cumulative IPC: 4 (Simulation time: 01 hr 22 min 41 sec)
*** Reached end of trace: (1, "traces/canneal_big1.champsimtrace")
Heartbeat CPU 1 instructions: 80000013 cycles: 47568515 heartbeat IPC: 1.761 cumulative IPC: 1.682 (Simulation time: 01 hr 22 min 48 sec)
*** Reached end of trace: (0, "traces/canneal_big0.champsimtrace")
*** Reached end of trace: (2, "traces/canneal_big2.champsimtrace")
*** Reached end of trace: (3, "traces/canneal_big3.champsimtrace")
*** Reached end of trace: (2, "traces/canneal_big2.champsimtrace")
*** Reached end of trace: (3, "traces/canneal_big3.champsimtrace")
Heartbeat CPU 2 instructions: 200000001 cycles: 50004204 heartbeat IPC: 4 cumulative IPC: 4 (Simulation time: 01 hr 27 min 04 sec)
Warmup finished CPU 2 instructions: 200000001 cycles: 50004204 cumulative IPC: 4 (Simulation time: 01 hr 27 min 04 sec)
Heartbeat CPU 3 instructions: 200000001 cycles: 50004251 heartbeat IPC: 4 cumulative IPC: 4 (Simulation time: 01 hr 27 min 04 sec)
Warmup finished CPU 3 instructions: 200000001 cycles: 50004251 cumulative IPC: 4 (Simulation time: 01 hr 27 min 04 sec)
*** Reached end of trace: (0, "traces/canneal_big0.champsimtrace")
Heartbeat CPU 0 instructions: 130000039 cycles: 50181139 heartbeat IPC: 2.6 cumulative IPC: 2.591 (Simulation time: 01 hr 27 min 24 sec)
*** Reached end of trace: (1, "traces/canneal_big1.champsimtrace")
*** Reached end of trace: (2, "traces/canneal_big2.champsimtrace")
*** Reached end of trace: (3, "traces/canneal_big3.champsimtrace")
*** Reached end of trace: (0, "traces/canneal_big0.champsimtrace")
*** Reached end of trace: (2, "traces/canneal_big2.champsimtrace")
*** Reached end of trace: (3, "traces/canneal_big3.champsimtrace")
Heartbeat CPU 2 instructions: 210000001 cycles: 52504204 heartbeat IPC: 4 cumulative IPC: 4 (Simulation time: 01 hr 31 min 36 sec)
Heartbeat CPU 3 instructions: 210000001 cycles: 52504251 heartbeat IPC: 4 cumulative IPC: 4 (Simulation time: 01 hr 31 min 36 sec)
*** Reached end of trace: (1, "traces/canneal_big1.champsimtrace")
Heartbeat CPU 1 instructions: 90000015 cycles: 53247631 heartbeat IPC: 1.761 cumulative IPC: 1.69 (Simulation time: 01 hr 32 min 56 sec)
*** Reached end of trace: (2, "traces/canneal_big2.champsimtrace")
*** Reached end of trace: (3, "traces/canneal_big3.champsimtrace")
*** Reached end of trace: (0, "traces/canneal_big0.champsimtrace")
Heartbeat CPU 0 instructions: 140000042 cycles: 54027035 heartbeat IPC: 2.6 cumulative IPC: 2.591 (Simulation time: 01 hr 34 min 17 sec)
*** Reached end of trace: (2, "traces/canneal_big2.champsimtrace")
*** Reached end of trace: (3, "traces/canneal_big3.champsimtrace")
Heartbeat CPU 2 instructions: 220000001 cycles: 55004204 heartbeat IPC: 4 cumulative IPC: 4 (Simulation time: 01 hr 36 min 01 sec)
Heartbeat CPU 3 instructions: 220000001 cycles: 55004251 heartbeat IPC: 4 cumulative IPC: 4 (Simulation time: 01 hr 36 min 01 sec)
*** Reached end of trace: (0, "traces/canneal_big0.champsimtrace")
*** Reached end of trace: (1, "traces/canneal_big1.champsimtrace")
*** Reached end of trace: (2, "traces/canneal_big2.champsimtrace")
*** Reached end of trace: (3, "traces/canneal_big3.champsimtrace")
*** Reached end of trace: (2, "traces/canneal_big2.champsimtrace")
*** Reached end of trace: (3, "traces/canneal_big3.champsimtrace")
Heartbeat CPU 2 instructions: 230000001 cycles: 57504204 heartbeat IPC: 4 cumulative IPC: 4 (Simulation time: 01 hr 40 min 13 sec)
Heartbeat CPU 3 instructions: 230000001 cycles: 57504251 heartbeat IPC: 4 cumulative IPC: 4 (Simulation time: 01 hr 40 min 13 sec)
*** Reached end of trace: (0, "traces/canneal_big0.champsimtrace")
Heartbeat CPU 0 instructions: 150000045 cycles: 57872896 heartbeat IPC: 2.6 cumulative IPC: 2.592 (Simulation time: 01 hr 40 min 52 sec)
*** Reached end of trace: (2, "traces/canneal_big2.champsimtrace")
*** Reached end of trace: (3, "traces/canneal_big3.champsimtrace")
*** Reached end of trace: (1, "traces/canneal_big1.champsimtrace")
Heartbeat CPU 1 instructions: 100000017 cycles: 58926812 heartbeat IPC: 1.761 cumulative IPC: 1.697 (Simulation time: 01 hr 42 min 38 sec)
*** Reached end of trace: (0, "traces/canneal_big0.champsimtrace")
*** Reached end of trace: (2, "traces/canneal_big2.champsimtrace")
*** Reached end of trace: (3, "traces/canneal_big3.champsimtrace")
Heartbeat CPU 2 instructions: 240000001 cycles: 60004204 heartbeat IPC: 4 cumulative IPC: 4 (Simulation time: 01 hr 44 min 30 sec)
Heartbeat CPU 3 instructions: 240000001 cycles: 60004251 heartbeat IPC: 4 cumulative IPC: 4 (Simulation time: 01 hr 44 min 30 sec)
*** Reached end of trace: (2, "traces/canneal_big2.champsimtrace")
*** Reached end of trace: (3, "traces/canneal_big3.champsimtrace")
*** Reached end of trace: (0, "traces/canneal_big0.champsimtrace")
Heartbeat CPU 0 instructions: 160000048 cycles: 61718682 heartbeat IPC: 2.6 cumulative IPC: 2.592 (Simulation time: 01 hr 47 min 17 sec)
*** Reached end of trace: (1, "traces/canneal_big1.champsimtrace")
*** Reached end of trace: (2, "traces/canneal_big2.champsimtrace")
*** Reached end of trace: (3, "traces/canneal_big3.champsimtrace")
Heartbeat CPU 2 instructions: 250000001 cycles: 62504204 heartbeat IPC: 4 cumulative IPC: 4 (Simulation time: 01 hr 48 min 43 sec)
Heartbeat CPU 3 instructions: 250000001 cycles: 62504251 heartbeat IPC: 4 cumulative IPC: 4 (Simulation time: 01 hr 48 min 43 sec)
*** Reached end of trace: (0, "traces/canneal_big0.champsimtrace")
*** Reached end of trace: (2, "traces/canneal_big2.champsimtrace")
*** Reached end of trace: (3, "traces/canneal_big3.champsimtrace")
*** Reached end of trace: (1, "traces/canneal_big1.champsimtrace")
Heartbeat CPU 1 instructions: 110000019 cycles: 64605873 heartbeat IPC: 1.761 cumulative IPC: 1.703 (Simulation time: 01 hr 52 min 19 sec)
*** Reached end of trace: (2, "traces/canneal_big2.champsimtrace")
*** Reached end of trace: (3, "traces/canneal_big3.champsimtrace")
Heartbeat CPU 2 instructions: 260000001 cycles: 65004204 heartbeat IPC: 4 cumulative IPC: 4 (Simulation time: 01 hr 52 min 58 sec)
Heartbeat CPU 3 instructions: 260000001 cycles: 65004251 heartbeat IPC: 4 cumulative IPC: 4 (Simulation time: 01 hr 52 min 58 sec)
*** Reached end of trace: (0, "traces/canneal_big0.champsimtrace")
Heartbeat CPU 0 instructions: 170000051 cycles: 65564158 heartbeat IPC: 2.6 cumulative IPC: 2.593 (Simulation time: 01 hr 53 min 56 sec)
*** Reached end of trace: (2, "traces/canneal_big2.champsimtrace")
*** Reached end of trace: (3, "traces/canneal_big3.champsimtrace")
*** Reached end of trace: (1, "traces/canneal_big1.champsimtrace")
*** Reached end of trace: (0, "traces/canneal_big0.champsimtrace")
*** Reached end of trace: (2, "traces/canneal_big2.champsimtrace")
*** Reached end of trace: (3, "traces/canneal_big3.champsimtrace")
Heartbeat CPU 2 instructions: 270000001 cycles: 67504204 heartbeat IPC: 4 cumulative IPC: 4 (Simulation time: 01 hr 57 min 03 sec)
Heartbeat CPU 3 instructions: 270000001 cycles: 67504251 heartbeat IPC: 4 cumulative IPC: 4 (Simulation time: 01 hr 57 min 03 sec)
*** Reached end of trace: (2, "traces/canneal_big2.champsimtrace")
*** Reached end of trace: (3, "traces/canneal_big3.champsimtrace")
*** Reached end of trace: (0, "traces/canneal_big0.champsimtrace")
Heartbeat CPU 0 instructions: 180000054 cycles: 69409924 heartbeat IPC: 2.6 cumulative IPC: 2.593 (Simulation time: 02 hr 00 min 08 sec)
*** Reached end of trace: (2, "traces/canneal_big2.champsimtrace")
*** Reached end of trace: (3, "traces/canneal_big3.champsimtrace")
Heartbeat CPU 2 instructions: 280000001 cycles: 70004204 heartbeat IPC: 4 cumulative IPC: 4 (Simulation time: 02 hr 01 min 10 sec)
Heartbeat CPU 3 instructions: 280000001 cycles: 70004251 heartbeat IPC: 4 cumulative IPC: 4 (Simulation time: 02 hr 01 min 10 sec)
*** Reached end of trace: (1, "traces/canneal_big1.champsimtrace")
Heartbeat CPU 1 instructions: 120000021 cycles: 70284879 heartbeat IPC: 1.761 cumulative IPC: 1.707 (Simulation time: 02 hr 01 min 38 sec)
*** Reached end of trace: (2, "traces/canneal_big2.champsimtrace")
*** Reached end of trace: (3, "traces/canneal_big3.champsimtrace")
*** Reached end of trace: (0, "traces/canneal_big0.champsimtrace")
*** Reached end of trace: (2, "traces/canneal_big2.champsimtrace")
*** Reached end of trace: (3, "traces/canneal_big3.champsimtrace")
Heartbeat CPU 2 instructions: 290000001 cycles: 72504204 heartbeat IPC: 4 cumulative IPC: 4 (Simulation time: 02 hr 05 min 28 sec)
Heartbeat CPU 3 instructions: 290000001 cycles: 72504251 heartbeat IPC: 4 cumulative IPC: 4 (Simulation time: 02 hr 05 min 28 sec)
*** Reached end of trace: (1, "traces/canneal_big1.champsimtrace")
*** Reached end of trace: (0, "traces/canneal_big0.champsimtrace")
Heartbeat CPU 0 instructions: 190000057 cycles: 73255700 heartbeat IPC: 2.6 cumulative IPC: 2.594 (Simulation time: 02 hr 06 min 41 sec)
*** Reached end of trace: (2, "traces/canneal_big2.champsimtrace")
*** Reached end of trace: (3, "traces/canneal_big3.champsimtrace")
*** Reached end of trace: (2, "traces/canneal_big2.champsimtrace")
*** Reached end of trace: (3, "traces/canneal_big3.champsimtrace")
Heartbeat CPU 2 instructions: 300000001 cycles: 75004204 heartbeat IPC: 4 cumulative IPC: 4 (Simulation time: 02 hr 09 min 43 sec)
Heartbeat CPU 3 instructions: 300000001 cycles: 75004251 heartbeat IPC: 4 cumulative IPC: 4 (Simulation time: 02 hr 09 min 43 sec)
*** Reached end of trace: (0, "traces/canneal_big0.champsimtrace")
*** Reached end of trace: (1, "traces/canneal_big1.champsimtrace")
Heartbeat CPU 1 instructions: 130000022 cycles: 75963894 heartbeat IPC: 1.761 cumulative IPC: 1.711 (Simulation time: 02 hr 11 min 15 sec)
*** Reached end of trace: (2, "traces/canneal_big2.champsimtrace")
*** Reached end of trace: (3, "traces/canneal_big3.champsimtrace")
*** Reached end of trace: (0, "traces/canneal_big0.champsimtrace")
Warmup finished CPU 0 instructions: 200000000 cycles: 77101339 cumulative IPC: 2.594 (Simulation time: 02 hr 13 min 13 sec)
Heartbeat CPU 0 instructions: 200000060 cycles: 77101351 heartbeat IPC: 2.6 cumulative IPC: 2.594 (Simulation time: 02 hr 13 min 13 sec)
*** Reached end of trace: (2, "traces/canneal_big2.champsimtrace")
*** Reached end of trace: (3, "traces/canneal_big3.champsimtrace")
Heartbeat CPU 2 instructions: 310000001 cycles: 77504204 heartbeat IPC: 4 cumulative IPC: 4 (Simulation time: 02 hr 14 min 00 sec)
Heartbeat CPU 3 instructions: 310000001 cycles: 77504251 heartbeat IPC: 4 cumulative IPC: 4 (Simulation time: 02 hr 14 min 00 sec)
*** Reached end of trace: (2, "traces/canneal_big2.champsimtrace")
*** Reached end of trace: (3, "traces/canneal_big3.champsimtrace")
*** Reached end of trace: (1, "traces/canneal_big1.champsimtrace")
*** Reached end of trace: (0, "traces/canneal_big0.champsimtrace")
*** Reached end of trace: (2, "traces/canneal_big2.champsimtrace")
*** Reached end of trace: (3, "traces/canneal_big3.champsimtrace")
Heartbeat CPU 2 instructions: 320000001 cycles: 80004204 heartbeat IPC: 4 cumulative IPC: 4 (Simulation time: 02 hr 18 min 35 sec)
Heartbeat CPU 3 instructions: 320000001 cycles: 80004251 heartbeat IPC: 4 cumulative IPC: 4 (Simulation time: 02 hr 18 min 35 sec)
*** Reached end of trace: (0, "traces/canneal_big0.champsimtrace")
Heartbeat CPU 0 instructions: 210000063 cycles: 80946972 heartbeat IPC: 2.6 cumulative IPC: 2.594 (Simulation time: 02 hr 20 min 12 sec)
*** Reached end of trace: (2, "traces/canneal_big2.champsimtrace")
*** Reached end of trace: (3, "traces/canneal_big3.champsimtrace")
*** Reached end of trace: (1, "traces/canneal_big1.champsimtrace")
Heartbeat CPU 1 instructions: 140000022 cycles: 81642966 heartbeat IPC: 1.761 cumulative IPC: 1.715 (Simulation time: 02 hr 21 min 26 sec)
*** Reached end of trace: (2, "traces/canneal_big2.champsimtrace")
*** Reached end of trace: (3, "traces/canneal_big3.champsimtrace")
Heartbeat CPU 2 instructions: 330000001 cycles: 82504204 heartbeat IPC: 4 cumulative IPC: 4 (Simulation time: 02 hr 22 min 49 sec)
Heartbeat CPU 3 instructions: 330000001 cycles: 82504251 heartbeat IPC: 4 cumulative IPC: 4 (Simulation time: 02 hr 22 min 49 sec)
*** Reached end of trace: (0, "traces/canneal_big0.champsimtrace")
*** Reached end of trace: (2, "traces/canneal_big2.champsimtrace")
*** Reached end of trace: (3, "traces/canneal_big3.champsimtrace")
*** Reached end of trace: (1, "traces/canneal_big1.champsimtrace")
*** Reached end of trace: (0, "traces/canneal_big0.champsimtrace")
Heartbeat CPU 0 instructions: 220000066 cycles: 84792493 heartbeat IPC: 2.6 cumulative IPC: 2.595 (Simulation time: 02 hr 26 min 51 sec)
*** Reached end of trace: (2, "traces/canneal_big2.champsimtrace")
*** Reached end of trace: (3, "traces/canneal_big3.champsimtrace")
Heartbeat CPU 2 instructions: 340000001 cycles: 85004204 heartbeat IPC: 4 cumulative IPC: 4 (Simulation time: 02 hr 27 min 16 sec)
Heartbeat CPU 3 instructions: 340000001 cycles: 85004251 heartbeat IPC: 4 cumulative IPC: 4 (Simulation time: 02 hr 27 min 16 sec)
*** Reached end of trace: (2, "traces/canneal_big2.champsimtrace")
*** Reached end of trace: (3, "traces/canneal_big3.champsimtrace")
*** Reached end of trace: (0, "traces/canneal_big0.champsimtrace")
*** Reached end of trace: (1, "traces/canneal_big1.champsimtrace")
Heartbeat CPU 1 instructions: 150000024 cycles: 87322053 heartbeat IPC: 1.761 cumulative IPC: 1.718 (Simulation time: 02 hr 31 min 23 sec)
*** Reached end of trace: (2, "traces/canneal_big2.champsimtrace")
*** Reached end of trace: (3, "traces/canneal_big3.champsimtrace")
Heartbeat CPU 2 instructions: 350000001 cycles: 87504204 heartbeat IPC: 4 cumulative IPC: 4 (Simulation time: 02 hr 31 min 40 sec)
Heartbeat CPU 3 instructions: 350000001 cycles: 87504251 heartbeat IPC: 4 cumulative IPC: 4 (Simulation time: 02 hr 31 min 40 sec)
*** Reached end of trace: (0, "traces/canneal_big0.champsimtrace")
Heartbeat CPU 0 instructions: 230000069 cycles: 88637994 heartbeat IPC: 2.6 cumulative IPC: 2.595 (Simulation time: 02 hr 33 min 31 sec)
*** Reached end of trace: (2, "traces/canneal_big2.champsimtrace")
*** Reached end of trace: (3, "traces/canneal_big3.champsimtrace")
*** Reached end of trace: (2, "traces/canneal_big2.champsimtrace")
*** Reached end of trace: (3, "traces/canneal_big3.champsimtrace")
Heartbeat CPU 2 instructions: 360000001 cycles: 90004204 heartbeat IPC: 4 cumulative IPC: 4 (Simulation time: 02 hr 35 min 56 sec)
Heartbeat CPU 3 instructions: 360000001 cycles: 90004251 heartbeat IPC: 4 cumulative IPC: 4 (Simulation time: 02 hr 35 min 56 sec)
*** Reached end of trace: (1, "traces/canneal_big1.champsimtrace")
*** Reached end of trace: (0, "traces/canneal_big0.champsimtrace")
*** Reached end of trace: (2, "traces/canneal_big2.champsimtrace")
*** Reached end of trace: (3, "traces/canneal_big3.champsimtrace")
*** Reached end of trace: (0, "traces/canneal_big0.champsimtrace")
Heartbeat CPU 0 instructions: 240000072 cycles: 92483475 heartbeat IPC: 2.6 cumulative IPC: 2.595 (Simulation time: 02 hr 40 min 05 sec)
*** Reached end of trace: (2, "traces/canneal_big2.champsimtrace")
*** Reached end of trace: (3, "traces/canneal_big3.champsimtrace")
Heartbeat CPU 2 instructions: 370000001 cycles: 92504204 heartbeat IPC: 4 cumulative IPC: 4 (Simulation time: 02 hr 40 min 06 sec)
Heartbeat CPU 3 instructions: 370000001 cycles: 92504251 heartbeat IPC: 4 cumulative IPC: 4 (Simulation time: 02 hr 40 min 06 sec)
*** Reached end of trace: (1, "traces/canneal_big1.champsimtrace")
Heartbeat CPU 1 instructions: 160000026 cycles: 93001089 heartbeat IPC: 1.761 cumulative IPC: 1.72 (Simulation time: 02 hr 41 min 00 sec)
*** Reached end of trace: (2, "traces/canneal_big2.champsimtrace")
*** Reached end of trace: (3, "traces/canneal_big3.champsimtrace")
*** Reached end of trace: (0, "traces/canneal_big0.champsimtrace")
*** Reached end of trace: (2, "traces/canneal_big2.champsimtrace")
*** Reached end of trace: (3, "traces/canneal_big3.champsimtrace")
Heartbeat CPU 2 instructions: 380000001 cycles: 95004204 heartbeat IPC: 4 cumulative IPC: 4 (Simulation time: 02 hr 44 min 18 sec)
Heartbeat CPU 3 instructions: 380000001 cycles: 95004251 heartbeat IPC: 4 cumulative IPC: 4 (Simulation time: 02 hr 44 min 18 sec)
*** Reached end of trace: (1, "traces/canneal_big1.champsimtrace")
*** Reached end of trace: (2, "traces/canneal_big2.champsimtrace")
*** Reached end of trace: (3, "traces/canneal_big3.champsimtrace")
*** Reached end of trace: (0, "traces/canneal_big0.champsimtrace")
Heartbeat CPU 0 instructions: 250000075 cycles: 96329126 heartbeat IPC: 2.6 cumulative IPC: 2.595 (Simulation time: 02 hr 46 min 33 sec)
*** Reached end of trace: (2, "traces/canneal_big2.champsimtrace")
*** Reached end of trace: (3, "traces/canneal_big3.champsimtrace")
Heartbeat CPU 2 instructions: 390000001 cycles: 97504204 heartbeat IPC: 4 cumulative IPC: 4 (Simulation time: 02 hr 48 min 35 sec)
Heartbeat CPU 3 instructions: 390000001 cycles: 97504251 heartbeat IPC: 4 cumulative IPC: 4 (Simulation time: 02 hr 48 min 35 sec)
*** Reached end of trace: (0, "traces/canneal_big0.champsimtrace")
*** Reached end of trace: (1, "traces/canneal_big1.champsimtrace")
Heartbeat CPU 1 instructions: 170000028 cycles: 98680040 heartbeat IPC: 1.761 cumulative IPC: 1.723 (Simulation time: 02 hr 50 min 35 sec)
*** Reached end of trace: (2, "traces/canneal_big2.champsimtrace")
*** Reached end of trace: (3, "traces/canneal_big3.champsimtrace")
*** Reached end of trace: (2, "traces/canneal_big2.champsimtrace")
*** Reached end of trace: (3, "traces/canneal_big3.champsimtrace")
Heartbeat CPU 2 instructions: 400000001 cycles: 100004204 heartbeat IPC: 4 cumulative IPC: 4 (Simulation time: 02 hr 52 min 44 sec)
Heartbeat CPU 3 instructions: 400000001 cycles: 100004251 heartbeat IPC: 4 cumulative IPC: 4 (Simulation time: 02 hr 52 min 44 sec)
*** Reached end of trace: (0, "traces/canneal_big0.champsimtrace")
Heartbeat CPU 0 instructions: 260000078 cycles: 100174842 heartbeat IPC: 2.6 cumulative IPC: 2.595 (Simulation time: 02 hr 53 min 00 sec)
*** Reached end of trace: (2, "traces/canneal_big2.champsimtrace")
*** Reached end of trace: (3, "traces/canneal_big3.champsimtrace")
*** Reached end of trace: (1, "traces/canneal_big1.champsimtrace")
*** Reached end of trace: (0, "traces/canneal_big0.champsimtrace")
*** Reached end of trace: (2, "traces/canneal_big2.champsimtrace")
*** Reached end of trace: (3, "traces/canneal_big3.champsimtrace")
Heartbeat CPU 2 instructions: 410000001 cycles: 102504204 heartbeat IPC: 4 cumulative IPC: 4 (Simulation time: 02 hr 56 min 55 sec)
Heartbeat CPU 3 instructions: 410000001 cycles: 102504251 heartbeat IPC: 4 cumulative IPC: 4 (Simulation time: 02 hr 56 min 55 sec)
*** Reached end of trace: (2, "traces/canneal_big2.champsimtrace")
*** Reached end of trace: (3, "traces/canneal_big3.champsimtrace")
*** Reached end of trace: (0, "traces/canneal_big0.champsimtrace")
Heartbeat CPU 0 instructions: 270000081 cycles: 104020593 heartbeat IPC: 2.6 cumulative IPC: 2.596 (Simulation time: 02 hr 59 min 32 sec)
*** Reached end of trace: (1, "traces/canneal_big1.champsimtrace")
Heartbeat CPU 1 instructions: 180000030 cycles: 104359001 heartbeat IPC: 1.761 cumulative IPC: 1.725 (Simulation time: 03 hr 00 min 09 sec)
*** Reached end of trace: (2, "traces/canneal_big2.champsimtrace")
*** Reached end of trace: (3, "traces/canneal_big3.champsimtrace")
Heartbeat CPU 2 instructions: 420000001 cycles: 105004204 heartbeat IPC: 4 cumulative IPC: 4 (Simulation time: 03 hr 01 min 20 sec)
Heartbeat CPU 3 instructions: 420000001 cycles: 105004251 heartbeat IPC: 4 cumulative IPC: 4 (Simulation time: 03 hr 01 min 20 sec)
*** Reached end of trace: (0, "traces/canneal_big0.champsimtrace")
*** Reached end of trace: (2, "traces/canneal_big2.champsimtrace")
*** Reached end of trace: (3, "traces/canneal_big3.champsimtrace")
*** Reached end of trace: (1, "traces/canneal_big1.champsimtrace")
*** Reached end of trace: (2, "traces/canneal_big2.champsimtrace")
*** Reached end of trace: (3, "traces/canneal_big3.champsimtrace")
Heartbeat CPU 2 instructions: 430000001 cycles: 107504204 heartbeat IPC: 4 cumulative IPC: 4 (Simulation time: 03 hr 05 min 45 sec)
Heartbeat CPU 3 instructions: 430000001 cycles: 107504251 heartbeat IPC: 4 cumulative IPC: 4 (Simulation time: 03 hr 05 min 45 sec)
*** Reached end of trace: (0, "traces/canneal_big0.champsimtrace")
Heartbeat CPU 0 instructions: 280000084 cycles: 107866374 heartbeat IPC: 2.6 cumulative IPC: 2.596 (Simulation time: 03 hr 06 min 15 sec)
*** Reached end of trace: (2, "traces/canneal_big2.champsimtrace")
*** Reached end of trace: (3, "traces/canneal_big3.champsimtrace")
*** Reached end of trace: (0, "traces/canneal_big0.champsimtrace")
*** Reached end of trace: (2, "traces/canneal_big2.champsimtrace")
*** Reached end of trace: (3, "traces/canneal_big3.champsimtrace")
Heartbeat CPU 2 instructions: 440000001 cycles: 110004204 heartbeat IPC: 4 cumulative IPC: 4 (Simulation time: 03 hr 09 min 51 sec)
Heartbeat CPU 3 instructions: 440000001 cycles: 110004251 heartbeat IPC: 4 cumulative IPC: 4 (Simulation time: 03 hr 09 min 51 sec)
*** Reached end of trace: (1, "traces/canneal_big1.champsimtrace")
Heartbeat CPU 1 instructions: 190000031 cycles: 110037852 heartbeat IPC: 1.761 cumulative IPC: 1.727 (Simulation time: 03 hr 09 min 56 sec)
*** Reached end of trace: (2, "traces/canneal_big2.champsimtrace")
*** Reached end of trace: (3, "traces/canneal_big3.champsimtrace")
*** Reached end of trace: (0, "traces/canneal_big0.champsimtrace")
Heartbeat CPU 0 instructions: 290000087 cycles: 111712150 heartbeat IPC: 2.6 cumulative IPC: 2.596 (Simulation time: 03 hr 12 min 51 sec)
*** Reached end of trace: (2, "traces/canneal_big2.champsimtrace")
*** Reached end of trace: (3, "traces/canneal_big3.champsimtrace")
Heartbeat CPU 2 instructions: 450000001 cycles: 112504204 heartbeat IPC: 4 cumulative IPC: 4 (Simulation time: 03 hr 14 min 16 sec)
Heartbeat CPU 3 instructions: 450000001 cycles: 112504251 heartbeat IPC: 4 cumulative IPC: 4 (Simulation time: 03 hr 14 min 16 sec)
*** Reached end of trace: (1, "traces/canneal_big1.champsimtrace")
*** Reached end of trace: (0, "traces/canneal_big0.champsimtrace")
*** Reached end of trace: (2, "traces/canneal_big2.champsimtrace")
*** Reached end of trace: (3, "traces/canneal_big3.champsimtrace")
*** Reached end of trace: (2, "traces/canneal_big2.champsimtrace")
*** Reached end of trace: (3, "traces/canneal_big3.champsimtrace")
Heartbeat CPU 2 instructions: 460000001 cycles: 115004204 heartbeat IPC: 4 cumulative IPC: 4 (Simulation time: 03 hr 18 min 30 sec)
Heartbeat CPU 3 instructions: 460000001 cycles: 115004251 heartbeat IPC: 4 cumulative IPC: 4 (Simulation time: 03 hr 18 min 30 sec)
*** Reached end of trace: (0, "traces/canneal_big0.champsimtrace")
Heartbeat CPU 0 instructions: 300000090 cycles: 115558031 heartbeat IPC: 2.6 cumulative IPC: 2.596 (Simulation time: 03 hr 19 min 26 sec)
*** Reached end of trace: (1, "traces/canneal_big1.champsimtrace")
Warmup finished CPU 1 instructions: 200000001 cycles: 115716698 cumulative IPC: 1.728 (Simulation time: 03 hr 19 min 41 sec)
Warmup complete CPU 3 instructions: 462849789 cycles: 115716698 cumulative IPC: 4 (Simulation time: 03 hr 19 min 41 sec)
Warmup complete CPU 2 instructions: 462849977 cycles: 115716698 cumulative IPC: 4 (Simulation time: 03 hr 19 min 41 sec)
Warmup complete CPU 1 instructions: 200000001 cycles: 115716698 cumulative IPC: 1.728 (Simulation time: 03 hr 19 min 41 sec)
Warmup complete CPU 0 instructions: 300560441 cycles: 115716698 cumulative IPC: 2.597 (Simulation time: 03 hr 19 min 41 sec)
Heartbeat CPU 1 instructions: 200000031 cycles: 115716731 heartbeat IPC: 1.761 cumulative IPC: 0.9091 (Simulation time: 03 hr 19 min 41 sec)
*** Reached end of trace: (2, "traces/canneal_big2.champsimtrace")
*** Reached end of trace: (3, "traces/canneal_big3.champsimtrace")
*** Reached end of trace: (0, "traces/canneal_big0.champsimtrace")
*** Reached end of trace: (2, "traces/canneal_big2.champsimtrace")
*** Reached end of trace: (3, "traces/canneal_big3.champsimtrace")
Heartbeat CPU 2 instructions: 470000001 cycles: 117504204 heartbeat IPC: 4 cumulative IPC: 4 (Simulation time: 03 hr 22 min 52 sec)
Heartbeat CPU 3 instructions: 470000001 cycles: 117504251 heartbeat IPC: 4 cumulative IPC: 4 (Simulation time: 03 hr 22 min 52 sec)
*** Reached end of trace: (2, "traces/canneal_big2.champsimtrace")
*** Reached end of trace: (3, "traces/canneal_big3.champsimtrace")
*** Reached end of trace: (0, "traces/canneal_big0.champsimtrace")
Heartbeat CPU 0 instructions: 310000093 cycles: 119353242 heartbeat IPC: 2.635 cumulative IPC: 2.596 (Simulation time: 03 hr 26 min 00 sec)
*** Reached end of trace: (2, "traces/canneal_big2.champsimtrace")
*** Reached end of trace: (3, "traces/canneal_big3.champsimtrace")
Heartbeat CPU 2 instructions: 480000001 cycles: 120004204 heartbeat IPC: 4 cumulative IPC: 4 (Simulation time: 03 hr 27 min 09 sec)
Heartbeat CPU 3 instructions: 480000001 cycles: 120004251 heartbeat IPC: 4 cumulative IPC: 4 (Simulation time: 03 hr 27 min 09 sec)
*** Reached end of trace: (2, "traces/canneal_big2.champsimtrace")
*** Reached end of trace: (3, "traces/canneal_big3.champsimtrace")
*** Reached end of trace: (0, "traces/canneal_big0.champsimtrace")
*** Reached end of trace: (2, "traces/canneal_big2.champsimtrace")
*** Reached end of trace: (3, "traces/canneal_big3.champsimtrace")
Heartbeat CPU 2 instructions: 490000001 cycles: 122504204 heartbeat IPC: 4 cumulative IPC: 4 (Simulation time: 03 hr 31 min 39 sec)
Heartbeat CPU 3 instructions: 490000001 cycles: 122504251 heartbeat IPC: 4 cumulative IPC: 4 (Simulation time: 03 hr 31 min 39 sec)
*** Reached end of trace: (0, "traces/canneal_big0.champsimtrace")
Heartbeat CPU 0 instructions: 320000096 cycles: 123272120 heartbeat IPC: 2.552 cumulative IPC: 2.573 (Simulation time: 03 hr 32 min 59 sec)
*** Reached end of trace: (2, "traces/canneal_big2.champsimtrace")
*** Reached end of trace: (3, "traces/canneal_big3.champsimtrace")
*** Reached end of trace: (2, "traces/canneal_big2.champsimtrace")
*** Reached end of trace: (3, "traces/canneal_big3.champsimtrace")
Heartbeat CPU 2 instructions: 500000001 cycles: 125004204 heartbeat IPC: 4 cumulative IPC: 4 (Simulation time: 03 hr 36 min 01 sec)
Heartbeat CPU 3 instructions: 500000001 cycles: 125004251 heartbeat IPC: 4 cumulative IPC: 4 (Simulation time: 03 hr 36 min 01 sec)
*** Reached end of trace: (0, "traces/canneal_big0.champsimtrace")
*** Reached end of trace: (2, "traces/canneal_big2.champsimtrace")
*** Reached end of trace: (3, "traces/canneal_big3.champsimtrace")
*** Reached end of trace: (0, "traces/canneal_big0.champsimtrace")
Heartbeat CPU 0 instructions: 330000099 cycles: 127190804 heartbeat IPC: 2.552 cumulative IPC: 2.566 (Simulation time: 03 hr 39 min 49 sec)
*** Reached end of trace: (2, "traces/canneal_big2.champsimtrace")
*** Reached end of trace: (3, "traces/canneal_big3.champsimtrace")
Heartbeat CPU 2 instructions: 510000001 cycles: 127504204 heartbeat IPC: 4 cumulative IPC: 4 (Simulation time: 03 hr 40 min 24 sec)
Heartbeat CPU 3 instructions: 510000001 cycles: 127504251 heartbeat IPC: 4 cumulative IPC: 4 (Simulation time: 03 hr 40 min 24 sec)
Simulation finished CPU 3 instructions: 50000000 cycles: 12500000 cumulative IPC: 4 (Simulation time: 03 hr 41 min 44 sec)
Simulation finished CPU 2 instructions: 50000000 cycles: 12500000 cumulative IPC: 4 (Simulation time: 03 hr 41 min 44 sec)
*** Reached end of trace: (2, "traces/canneal_big2.champsimtrace")
*** Reached end of trace: (3, "traces/canneal_big3.champsimtrace")
*** Reached end of trace: (0, "traces/canneal_big0.champsimtrace")
*** Reached end of trace: (1, "traces/canneal_big1.champsimtrace")
*** Reached end of trace: (2, "traces/canneal_big2.champsimtrace")
*** Reached end of trace: (3, "traces/canneal_big3.champsimtrace")
Heartbeat CPU 2 instructions: 520000001 cycles: 130004204 heartbeat IPC: 4 cumulative IPC: 4 (Simulation time: 03 hr 45 min 01 sec)
Heartbeat CPU 3 instructions: 520000001 cycles: 130004251 heartbeat IPC: 4 cumulative IPC: 4 (Simulation time: 03 hr 45 min 01 sec)
*** Reached end of trace: (0, "traces/canneal_big0.champsimtrace")
Heartbeat CPU 0 instructions: 340000099 cycles: 131108765 heartbeat IPC: 2.552 cumulative IPC: 2.562 (Simulation time: 03 hr 47 min 00 sec)
*** Reached end of trace: (2, "traces/canneal_big2.champsimtrace")
*** Reached end of trace: (3, "traces/canneal_big3.champsimtrace")
*** Reached end of trace: (2, "traces/canneal_big2.champsimtrace")
*** Reached end of trace: (3, "traces/canneal_big3.champsimtrace")
Heartbeat CPU 2 instructions: 530000001 cycles: 132504204 heartbeat IPC: 4 cumulative IPC: 4 (Simulation time: 03 hr 49 min 13 sec)
Heartbeat CPU 3 instructions: 530000001 cycles: 132504251 heartbeat IPC: 4 cumulative IPC: 4 (Simulation time: 03 hr 49 min 13 sec)
*** Reached end of trace: (0, "traces/canneal_big0.champsimtrace")
*** Reached end of trace: (2, "traces/canneal_big2.champsimtrace")
*** Reached end of trace: (3, "traces/canneal_big3.champsimtrace")
*** Reached end of trace: (2, "traces/canneal_big2.champsimtrace")
*** Reached end of trace: (3, "traces/canneal_big3.champsimtrace")
Heartbeat CPU 2 instructions: 540000001 cycles: 135004204 heartbeat IPC: 4 cumulative IPC: 4 (Simulation time: 03 hr 53 min 28 sec)
Heartbeat CPU 3 instructions: 540000001 cycles: 135004251 heartbeat IPC: 4 cumulative IPC: 4 (Simulation time: 03 hr 53 min 28 sec)
*** Reached end of trace: (0, "traces/canneal_big0.champsimtrace")
Heartbeat CPU 0 instructions: 350000100 cycles: 135031955 heartbeat IPC: 2.549 cumulative IPC: 2.56 (Simulation time: 03 hr 53 min 32 sec)
Simulation finished CPU 0 instructions: 50000003 cycles: 19599063 cumulative IPC: 2.551 (Simulation time: 03 hr 54 min 01 sec)
*** Reached end of trace: (2, "traces/canneal_big2.champsimtrace")
*** Reached end of trace: (3, "traces/canneal_big3.champsimtrace")
*** Reached end of trace: (0, "traces/canneal_big0.champsimtrace")
*** Reached end of trace: (2, "traces/canneal_big2.champsimtrace")
*** Reached end of trace: (3, "traces/canneal_big3.champsimtrace")
Heartbeat CPU 2 instructions: 550000001 cycles: 137504204 heartbeat IPC: 4 cumulative IPC: 4 (Simulation time: 03 hr 57 min 50 sec)
Heartbeat CPU 3 instructions: 550000001 cycles: 137504251 heartbeat IPC: 4 cumulative IPC: 4 (Simulation time: 03 hr 57 min 50 sec)
*** Reached end of trace: (2, "traces/canneal_big2.champsimtrace")
*** Reached end of trace: (3, "traces/canneal_big3.champsimtrace")
*** Reached end of trace: (0, "traces/canneal_big0.champsimtrace")
Heartbeat CPU 0 instructions: 360000100 cycles: 138956929 heartbeat IPC: 2.548 cumulative IPC: 2.558 (Simulation time: 04 hr 00 min 17 sec)
*** Reached end of trace: (2, "traces/canneal_big2.champsimtrace")
*** Reached end of trace: (3, "traces/canneal_big3.champsimtrace")
Heartbeat CPU 2 instructions: 560000001 cycles: 140004204 heartbeat IPC: 4 cumulative IPC: 4 (Simulation time: 04 hr 02 min 02 sec)
Heartbeat CPU 3 instructions: 560000001 cycles: 140004251 heartbeat IPC: 4 cumulative IPC: 4 (Simulation time: 04 hr 02 min 02 sec)
*** Reached end of trace: (0, "traces/canneal_big0.champsimtrace")
*** Reached end of trace: (2, "traces/canneal_big2.champsimtrace")
*** Reached end of trace: (3, "traces/canneal_big3.champsimtrace")
*** Reached end of trace: (2, "traces/canneal_big2.champsimtrace")
*** Reached end of trace: (3, "traces/canneal_big3.champsimtrace")
Heartbeat CPU 2 instructions: 570000001 cycles: 142504204 heartbeat IPC: 4 cumulative IPC: 4 (Simulation time: 04 hr 06 min 23 sec)
Heartbeat CPU 3 instructions: 570000001 cycles: 142504251 heartbeat IPC: 4 cumulative IPC: 4 (Simulation time: 04 hr 06 min 23 sec)
*** Reached end of trace: (0, "traces/canneal_big0.champsimtrace")
Heartbeat CPU 0 instructions: 370000101 cycles: 142868208 heartbeat IPC: 2.557 cumulative IPC: 2.557 (Simulation time: 04 hr 07 min 03 sec)
*** Reached end of trace: (2, "traces/canneal_big2.champsimtrace")
*** Reached end of trace: (3, "traces/canneal_big3.champsimtrace")
*** Reached end of trace: (1, "traces/canneal_big1.champsimtrace")
Heartbeat CPU 1 instructions: 210000032 cycles: 144277621 heartbeat IPC: 0.3501 cumulative IPC: 0.3501 (Simulation time: 04 hr 09 min 33 sec)
*** Reached end of trace: (0, "traces/canneal_big0.champsimtrace")
*** Reached end of trace: (2, "traces/canneal_big2.champsimtrace")
*** Reached end of trace: (3, "traces/canneal_big3.champsimtrace")
Heartbeat CPU 2 instructions: 580000001 cycles: 145004204 heartbeat IPC: 4 cumulative IPC: 4 (Simulation time: 04 hr 10 min 48 sec)
Heartbeat CPU 3 instructions: 580000001 cycles: 145004251 heartbeat IPC: 4 cumulative IPC: 4 (Simulation time: 04 hr 10 min 48 sec)
*** Reached end of trace: (2, "traces/canneal_big2.champsimtrace")
*** Reached end of trace: (3, "traces/canneal_big3.champsimtrace")
*** Reached end of trace: (0, "traces/canneal_big0.champsimtrace")
Heartbeat CPU 0 instructions: 380000104 cycles: 146780277 heartbeat IPC: 2.556 cumulative IPC: 2.557 (Simulation time: 04 hr 13 min 46 sec)
*** Reached end of trace: (2, "traces/canneal_big2.champsimtrace")
*** Reached end of trace: (3, "traces/canneal_big3.champsimtrace")
Heartbeat CPU 2 instructions: 590000001 cycles: 147504204 heartbeat IPC: 4 cumulative IPC: 4 (Simulation time: 04 hr 15 min 06 sec)
Heartbeat CPU 3 instructions: 590000001 cycles: 147504251 heartbeat IPC: 4 cumulative IPC: 4 (Simulation time: 04 hr 15 min 06 sec)
*** Reached end of trace: (0, "traces/canneal_big0.champsimtrace")
*** Reached end of trace: (2, "traces/canneal_big2.champsimtrace")
*** Reached end of trace: (3, "traces/canneal_big3.champsimtrace")
*** Reached end of trace: (2, "traces/canneal_big2.champsimtrace")
*** Reached end of trace: (3, "traces/canneal_big3.champsimtrace")
Heartbeat CPU 2 instructions: 600000001 cycles: 150004204 heartbeat IPC: 4 cumulative IPC: 4 (Simulation time: 04 hr 19 min 04 sec)
Heartbeat CPU 3 instructions: 600000001 cycles: 150004251 heartbeat IPC: 4 cumulative IPC: 4 (Simulation time: 04 hr 19 min 04 sec)
*** Reached end of trace: (0, "traces/canneal_big0.champsimtrace")
Heartbeat CPU 0 instructions: 390000104 cycles: 150703316 heartbeat IPC: 2.549 cumulative IPC: 2.556 (Simulation time: 04 hr 20 min 17 sec)
*** Reached end of trace: (2, "traces/canneal_big2.champsimtrace")
*** Reached end of trace: (3, "traces/canneal_big3.champsimtrace")
*** Reached end of trace: (2, "traces/canneal_big2.champsimtrace")
*** Reached end of trace: (3, "traces/canneal_big3.champsimtrace")
Heartbeat CPU 2 instructions: 610000001 cycles: 152504204 heartbeat IPC: 4 cumulative IPC: 4 (Simulation time: 04 hr 23 min 15 sec)
Heartbeat CPU 3 instructions: 610000001 cycles: 152504251 heartbeat IPC: 4 cumulative IPC: 4 (Simulation time: 04 hr 23 min 15 sec)
*** Reached end of trace: (0, "traces/canneal_big0.champsimtrace")
*** Reached end of trace: (2, "traces/canneal_big2.champsimtrace")
*** Reached end of trace: (3, "traces/canneal_big3.champsimtrace")
*** Reached end of trace: (0, "traces/canneal_big0.champsimtrace")
Heartbeat CPU 0 instructions: 400000105 cycles: 154626060 heartbeat IPC: 2.549 cumulative IPC: 2.556 (Simulation time: 04 hr 26 min 38 sec)
*** Reached end of trace: (2, "traces/canneal_big2.champsimtrace")
*** Reached end of trace: (3, "traces/canneal_big3.champsimtrace")
Heartbeat CPU 2 instructions: 620000001 cycles: 155004204 heartbeat IPC: 4 cumulative IPC: 4 (Simulation time: 04 hr 27 min 11 sec)
Heartbeat CPU 3 instructions: 620000001 cycles: 155004251 heartbeat IPC: 4 cumulative IPC: 4 (Simulation time: 04 hr 27 min 11 sec)
*** Reached end of trace: (2, "traces/canneal_big2.champsimtrace")
*** Reached end of trace: (3, "traces/canneal_big3.champsimtrace")
*** Reached end of trace: (0, "traces/canneal_big0.champsimtrace")
*** Reached end of trace: (2, "traces/canneal_big2.champsimtrace")
*** Reached end of trace: (3, "traces/canneal_big3.champsimtrace")
Heartbeat CPU 2 instructions: 630000001 cycles: 157504204 heartbeat IPC: 4 cumulative IPC: 4 (Simulation time: 04 hr 31 min 27 sec)
Heartbeat CPU 3 instructions: 630000001 cycles: 157504251 heartbeat IPC: 4 cumulative IPC: 4 (Simulation time: 04 hr 31 min 27 sec)
*** Reached end of trace: (0, "traces/canneal_big0.champsimtrace")
Heartbeat CPU 0 instructions: 410000108 cycles: 158547296 heartbeat IPC: 2.55 cumulative IPC: 2.555 (Simulation time: 04 hr 33 min 12 sec)
*** Reached end of trace: (1, "traces/canneal_big1.champsimtrace")
*** Reached end of trace: (2, "traces/canneal_big2.champsimtrace")
*** Reached end of trace: (3, "traces/canneal_big3.champsimtrace")
*** Reached end of trace: (2, "traces/canneal_big2.champsimtrace")
*** Reached end of trace: (3, "traces/canneal_big3.champsimtrace")
Heartbeat CPU 2 instructions: 640000001 cycles: 160004204 heartbeat IPC: 4 cumulative IPC: 4 (Simulation time: 04 hr 35 min 35 sec)
Heartbeat CPU 3 instructions: 640000001 cycles: 160004251 heartbeat IPC: 4 cumulative IPC: 4 (Simulation time: 04 hr 35 min 35 sec)
*** Reached end of trace: (0, "traces/canneal_big0.champsimtrace")
*** Reached end of trace: (2, "traces/canneal_big2.champsimtrace")
*** Reached end of trace: (3, "traces/canneal_big3.champsimtrace")
*** Reached end of trace: (0, "traces/canneal_big0.champsimtrace")
Heartbeat CPU 0 instructions: 420000111 cycles: 162459962 heartbeat IPC: 2.556 cumulative IPC: 2.555 (Simulation time: 04 hr 39 min 51 sec)
*** Reached end of trace: (2, "traces/canneal_big2.champsimtrace")
*** Reached end of trace: (3, "traces/canneal_big3.champsimtrace")
Heartbeat CPU 2 instructions: 650000001 cycles: 162504204 heartbeat IPC: 4 cumulative IPC: 4 (Simulation time: 04 hr 39 min 56 sec)
Heartbeat CPU 3 instructions: 650000001 cycles: 162504251 heartbeat IPC: 4 cumulative IPC: 4 (Simulation time: 04 hr 39 min 56 sec)
*** Reached end of trace: (2, "traces/canneal_big2.champsimtrace")
*** Reached end of trace: (3, "traces/canneal_big3.champsimtrace")
*** Reached end of trace: (0, "traces/canneal_big0.champsimtrace")
*** Reached end of trace: (2, "traces/canneal_big2.champsimtrace")
*** Reached end of trace: (3, "traces/canneal_big3.champsimtrace")
Heartbeat CPU 2 instructions: 660000001 cycles: 165004204 heartbeat IPC: 4 cumulative IPC: 4 (Simulation time: 04 hr 44 min 05 sec)
Heartbeat CPU 3 instructions: 660000001 cycles: 165004251 heartbeat IPC: 4 cumulative IPC: 4 (Simulation time: 04 hr 44 min 05 sec)
*** Reached end of trace: (2, "traces/canneal_big2.champsimtrace")
*** Reached end of trace: (3, "traces/canneal_big3.champsimtrace")
*** Reached end of trace: (0, "traces/canneal_big0.champsimtrace")
Heartbeat CPU 0 instructions: 430000114 cycles: 166376813 heartbeat IPC: 2.553 cumulative IPC: 2.555 (Simulation time: 04 hr 46 min 17 sec)
*** Reached end of trace: (2, "traces/canneal_big2.champsimtrace")
*** Reached end of trace: (3, "traces/canneal_big3.champsimtrace")
Heartbeat CPU 2 instructions: 670000001 cycles: 167504204 heartbeat IPC: 4 cumulative IPC: 4 (Simulation time: 04 hr 48 min 03 sec)
Heartbeat CPU 3 instructions: 670000001 cycles: 167504251 heartbeat IPC: 4 cumulative IPC: 4 (Simulation time: 04 hr 48 min 03 sec)
*** Reached end of trace: (0, "traces/canneal_big0.champsimtrace")
*** Reached end of trace: (2, "traces/canneal_big2.champsimtrace")
*** Reached end of trace: (3, "traces/canneal_big3.champsimtrace")
*** Reached end of trace: (2, "traces/canneal_big2.champsimtrace")
*** Reached end of trace: (3, "traces/canneal_big3.champsimtrace")
Heartbeat CPU 2 instructions: 680000001 cycles: 170004204 heartbeat IPC: 4 cumulative IPC: 4 (Simulation time: 04 hr 52 min 24 sec)
Heartbeat CPU 3 instructions: 680000001 cycles: 170004251 heartbeat IPC: 4 cumulative IPC: 4 (Simulation time: 04 hr 52 min 24 sec)
*** Reached end of trace: (0, "traces/canneal_big0.champsimtrace")
Heartbeat CPU 0 instructions: 440000117 cycles: 170298417 heartbeat IPC: 2.55 cumulative IPC: 2.555 (Simulation time: 04 hr 53 min 02 sec)
*** Reached end of trace: (2, "traces/canneal_big2.champsimtrace")
*** Reached end of trace: (3, "traces/canneal_big3.champsimtrace")
*** Reached end of trace: (0, "traces/canneal_big0.champsimtrace")
*** Reached end of trace: (2, "traces/canneal_big2.champsimtrace")
*** Reached end of trace: (3, "traces/canneal_big3.champsimtrace")
Heartbeat CPU 2 instructions: 690000001 cycles: 172504204 heartbeat IPC: 4 cumulative IPC: 4 (Simulation time: 04 hr 57 min 24 sec)
Heartbeat CPU 3 instructions: 690000001 cycles: 172504251 heartbeat IPC: 4 cumulative IPC: 4 (Simulation time: 04 hr 57 min 24 sec)
*** Reached end of trace: (1, "traces/canneal_big1.champsimtrace")
Heartbeat CPU 1 instructions: 220000034 cycles: 172847572 heartbeat IPC: 0.35 cumulative IPC: 0.3501 (Simulation time: 04 hr 58 min 08 sec)
*** Reached end of trace: (2, "traces/canneal_big2.champsimtrace")
*** Reached end of trace: (3, "traces/canneal_big3.champsimtrace")
*** Reached end of trace: (0, "traces/canneal_big0.champsimtrace")
Heartbeat CPU 0 instructions: 450000120 cycles: 174218613 heartbeat IPC: 2.551 cumulative IPC: 2.554 (Simulation time: 05 hr 00 min 53 sec)
*** Reached end of trace: (2, "traces/canneal_big2.champsimtrace")
*** Reached end of trace: (3, "traces/canneal_big3.champsimtrace")
Heartbeat CPU 2 instructions: 700000001 cycles: 175004204 heartbeat IPC: 4 cumulative IPC: 4 (Simulation time: 05 hr 02 min 29 sec)
Heartbeat CPU 3 instructions: 700000001 cycles: 175004251 heartbeat IPC: 4 cumulative IPC: 4 (Simulation time: 05 hr 02 min 29 sec)
*** Reached end of trace: (0, "traces/canneal_big0.champsimtrace")
*** Reached end of trace: (2, "traces/canneal_big2.champsimtrace")
*** Reached end of trace: (3, "traces/canneal_big3.champsimtrace")
*** Reached end of trace: (2, "traces/canneal_big2.champsimtrace")
*** Reached end of trace: (3, "traces/canneal_big3.champsimtrace")
Heartbeat CPU 2 instructions: 710000001 cycles: 177504204 heartbeat IPC: 4 cumulative IPC: 4 (Simulation time: 05 hr 07 min 16 sec)
Heartbeat CPU 3 instructions: 710000001 cycles: 177504251 heartbeat IPC: 4 cumulative IPC: 4 (Simulation time: 05 hr 07 min 16 sec)
*** Reached end of trace: (0, "traces/canneal_big0.champsimtrace")
Heartbeat CPU 0 instructions: 460000120 cycles: 178143869 heartbeat IPC: 2.548 cumulative IPC: 2.554 (Simulation time: 05 hr 08 min 25 sec)
*** Reached end of trace: (2, "traces/canneal_big2.champsimtrace")
*** Reached end of trace: (3, "traces/canneal_big3.champsimtrace")
*** Reached end of trace: (2, "traces/canneal_big2.champsimtrace")
*** Reached end of trace: (3, "traces/canneal_big3.champsimtrace")
Heartbeat CPU 2 instructions: 720000001 cycles: 180004204 heartbeat IPC: 4 cumulative IPC: 4 (Simulation time: 05 hr 12 min 05 sec)
Heartbeat CPU 3 instructions: 720000001 cycles: 180004251 heartbeat IPC: 4 cumulative IPC: 4 (Simulation time: 05 hr 12 min 05 sec)
*** Reached end of trace: (0, "traces/canneal_big0.champsimtrace")
*** Reached end of trace: (2, "traces/canneal_big2.champsimtrace")
*** Reached end of trace: (3, "traces/canneal_big3.champsimtrace")
*** Reached end of trace: (0, "traces/canneal_big0.champsimtrace")
Heartbeat CPU 0 instructions: 470000121 cycles: 182069466 heartbeat IPC: 2.547 cumulative IPC: 2.554 (Simulation time: 05 hr 16 min 07 sec)
*** Reached end of trace: (2, "traces/canneal_big2.champsimtrace")
*** Reached end of trace: (3, "traces/canneal_big3.champsimtrace")
Heartbeat CPU 2 instructions: 730000001 cycles: 182504204 heartbeat IPC: 4 cumulative IPC: 4 (Simulation time: 05 hr 16 min 56 sec)
Heartbeat CPU 3 instructions: 730000001 cycles: 182504251 heartbeat IPC: 4 cumulative IPC: 4 (Simulation time: 05 hr 16 min 56 sec)
*** Reached end of trace: (2, "traces/canneal_big2.champsimtrace")
*** Reached end of trace: (3, "traces/canneal_big3.champsimtrace")
*** Reached end of trace: (0, "traces/canneal_big0.champsimtrace")
*** Reached end of trace: (2, "traces/canneal_big2.champsimtrace")
*** Reached end of trace: (3, "traces/canneal_big3.champsimtrace")
Heartbeat CPU 2 instructions: 740000001 cycles: 185004204 heartbeat IPC: 4 cumulative IPC: 4 (Simulation time: 05 hr 21 min 41 sec)
Heartbeat CPU 3 instructions: 740000001 cycles: 185004251 heartbeat IPC: 4 cumulative IPC: 4 (Simulation time: 05 hr 21 min 41 sec)
*** Reached end of trace: (0, "traces/canneal_big0.champsimtrace")
Heartbeat CPU 0 instructions: 480000121 cycles: 185993650 heartbeat IPC: 2.548 cumulative IPC: 2.553 (Simulation time: 05 hr 23 min 30 sec)
*** Reached end of trace: (2, "traces/canneal_big2.champsimtrace")
*** Reached end of trace: (3, "traces/canneal_big3.champsimtrace")
*** Reached end of trace: (1, "traces/canneal_big1.champsimtrace")
*** Reached end of trace: (2, "traces/canneal_big2.champsimtrace")
*** Reached end of trace: (3, "traces/canneal_big3.champsimtrace")
Heartbeat CPU 2 instructions: 750000001 cycles: 187504204 heartbeat IPC: 4 cumulative IPC: 4 (Simulation time: 05 hr 26 min 25 sec)
Heartbeat CPU 3 instructions: 750000001 cycles: 187504251 heartbeat IPC: 4 cumulative IPC: 4 (Simulation time: 05 hr 26 min 25 sec)
*** Reached end of trace: (0, "traces/canneal_big0.champsimtrace")
*** Reached end of trace: (2, "traces/canneal_big2.champsimtrace")
*** Reached end of trace: (3, "traces/canneal_big3.champsimtrace")
*** Reached end of trace: (0, "traces/canneal_big0.champsimtrace")
Heartbeat CPU 0 instructions: 490000122 cycles: 189915905 heartbeat IPC: 2.55 cumulative IPC: 2.553 (Simulation time: 05 hr 30 min 53 sec)
*** Reached end of trace: (2, "traces/canneal_big2.champsimtrace")
*** Reached end of trace: (3, "traces/canneal_big3.champsimtrace")
Heartbeat CPU 2 instructions: 760000001 cycles: 190004204 heartbeat IPC: 4 cumulative IPC: 4 (Simulation time: 05 hr 31 min 03 sec)
Heartbeat CPU 3 instructions: 760000001 cycles: 190004251 heartbeat IPC: 4 cumulative IPC: 4 (Simulation time: 05 hr 31 min 03 sec)
*** Reached end of trace: (2, "traces/canneal_big2.champsimtrace")
*** Reached end of trace: (3, "traces/canneal_big3.champsimtrace")
*** Reached end of trace: (0, "traces/canneal_big0.champsimtrace")
*** Reached end of trace: (2, "traces/canneal_big2.champsimtrace")
*** Reached end of trace: (3, "traces/canneal_big3.champsimtrace")
Heartbeat CPU 2 instructions: 770000001 cycles: 192504204 heartbeat IPC: 4 cumulative IPC: 4 (Simulation time: 05 hr 35 min 40 sec)
Heartbeat CPU 3 instructions: 770000001 cycles: 192504251 heartbeat IPC: 4 cumulative IPC: 4 (Simulation time: 05 hr 35 min 40 sec)
*** Reached end of trace: (2, "traces/canneal_big2.champsimtrace")
*** Reached end of trace: (3, "traces/canneal_big3.champsimtrace")
*** Reached end of trace: (0, "traces/canneal_big0.champsimtrace")
Heartbeat CPU 0 instructions: 500000125 cycles: 193838578 heartbeat IPC: 2.549 cumulative IPC: 2.553 (Simulation time: 05 hr 38 min 03 sec)
*** Reached end of trace: (2, "traces/canneal_big2.champsimtrace")
*** Reached end of trace: (3, "traces/canneal_big3.champsimtrace")
Heartbeat CPU 2 instructions: 780000001 cycles: 195004204 heartbeat IPC: 4 cumulative IPC: 4 (Simulation time: 05 hr 40 min 13 sec)
Heartbeat CPU 3 instructions: 780000001 cycles: 195004251 heartbeat IPC: 4 cumulative IPC: 4 (Simulation time: 05 hr 40 min 13 sec)
*** Reached end of trace: (0, "traces/canneal_big0.champsimtrace")
*** Reached end of trace: (2, "traces/canneal_big2.champsimtrace")
*** Reached end of trace: (3, "traces/canneal_big3.champsimtrace")
*** Reached end of trace: (2, "traces/canneal_big2.champsimtrace")
*** Reached end of trace: (3, "traces/canneal_big3.champsimtrace")
Heartbeat CPU 2 instructions: 790000001 cycles: 197504204 heartbeat IPC: 4 cumulative IPC: 4 (Simulation time: 05 hr 44 min 50 sec)
Heartbeat CPU 3 instructions: 790000001 cycles: 197504251 heartbeat IPC: 4 cumulative IPC: 4 (Simulation time: 05 hr 44 min 50 sec)
*** Reached end of trace: (0, "traces/canneal_big0.champsimtrace")
Heartbeat CPU 0 instructions: 510000125 cycles: 197761280 heartbeat IPC: 2.549 cumulative IPC: 2.553 (Simulation time: 05 hr 45 min 18 sec)
*** Reached end of trace: (2, "traces/canneal_big2.champsimtrace")
*** Reached end of trace: (3, "traces/canneal_big3.champsimtrace")
*** Reached end of trace: (0, "traces/canneal_big0.champsimtrace")
*** Reached end of trace: (2, "traces/canneal_big2.champsimtrace")
*** Reached end of trace: (3, "traces/canneal_big3.champsimtrace")
Heartbeat CPU 2 instructions: 800000001 cycles: 200004204 heartbeat IPC: 4 cumulative IPC: 4 (Simulation time: 05 hr 49 min 23 sec)
Heartbeat CPU 3 instructions: 800000001 cycles: 200004251 heartbeat IPC: 4 cumulative IPC: 4 (Simulation time: 05 hr 49 min 23 sec)
*** Reached end of trace: (2, "traces/canneal_big2.champsimtrace")
*** Reached end of trace: (3, "traces/canneal_big3.champsimtrace")
*** Reached end of trace: (1, "traces/canneal_big1.champsimtrace")
Heartbeat CPU 1 instructions: 230000035 cycles: 201416938 heartbeat IPC: 0.35 cumulative IPC: 0.3501 (Simulation time: 05 hr 51 min 58 sec)
*** Reached end of trace: (0, "traces/canneal_big0.champsimtrace")
Heartbeat CPU 0 instructions: 520000126 cycles: 201677037 heartbeat IPC: 2.554 cumulative IPC: 2.553 (Simulation time: 05 hr 52 min 27 sec)
*** Reached end of trace: (2, "traces/canneal_big2.champsimtrace")
*** Reached end of trace: (3, "traces/canneal_big3.champsimtrace")
Heartbeat CPU 2 instructions: 810000001 cycles: 202504204 heartbeat IPC: 4 cumulative IPC: 4 (Simulation time: 05 hr 54 min 02 sec)
Heartbeat CPU 3 instructions: 810000001 cycles: 202504251 heartbeat IPC: 4 cumulative IPC: 4 (Simulation time: 05 hr 54 min 02 sec)
*** Reached end of trace: (0, "traces/canneal_big0.champsimtrace")
*** Reached end of trace: (2, "traces/canneal_big2.champsimtrace")
*** Reached end of trace: (3, "traces/canneal_big3.champsimtrace")
*** Reached end of trace: (2, "traces/canneal_big2.champsimtrace")
*** Reached end of trace: (3, "traces/canneal_big3.champsimtrace")
Heartbeat CPU 2 instructions: 820000001 cycles: 205004204 heartbeat IPC: 4 cumulative IPC: 4 (Simulation time: 05 hr 58 min 50 sec)
Heartbeat CPU 3 instructions: 820000001 cycles: 205004251 heartbeat IPC: 4 cumulative IPC: 4 (Simulation time: 05 hr 58 min 50 sec)
*** Reached end of trace: (0, "traces/canneal_big0.champsimtrace")
Heartbeat CPU 0 instructions: 530000129 cycles: 205580355 heartbeat IPC: 2.562 cumulative IPC: 2.553 (Simulation time: 05 hr 59 min 57 sec)
*** Reached end of trace: (2, "traces/canneal_big2.champsimtrace")
*** Reached end of trace: (3, "traces/canneal_big3.champsimtrace")
*** Reached end of trace: (2, "traces/canneal_big2.champsimtrace")
*** Reached end of trace: (3, "traces/canneal_big3.champsimtrace")
Heartbeat CPU 2 instructions: 830000001 cycles: 207504204 heartbeat IPC: 4 cumulative IPC: 4 (Simulation time: 06 hr 03 min 48 sec)
Heartbeat CPU 3 instructions: 830000001 cycles: 207504251 heartbeat IPC: 4 cumulative IPC: 4 (Simulation time: 06 hr 03 min 48 sec)
*** Reached end of trace: (0, "traces/canneal_big0.champsimtrace")
*** Reached end of trace: (2, "traces/canneal_big2.champsimtrace")
*** Reached end of trace: (3, "traces/canneal_big3.champsimtrace")
*** Reached end of trace: (0, "traces/canneal_big0.champsimtrace")
Heartbeat CPU 0 instructions: 540000132 cycles: 209504589 heartbeat IPC: 2.548 cumulative IPC: 2.553 (Simulation time: 06 hr 07 min 33 sec)
*** Reached end of trace: (2, "traces/canneal_big2.champsimtrace")
*** Reached end of trace: (3, "traces/canneal_big3.champsimtrace")
Heartbeat CPU 2 instructions: 840000001 cycles: 210004204 heartbeat IPC: 4 cumulative IPC: 4 (Simulation time: 06 hr 08 min 32 sec)
Heartbeat CPU 3 instructions: 840000001 cycles: 210004251 heartbeat IPC: 4 cumulative IPC: 4 (Simulation time: 06 hr 08 min 32 sec)
*** Reached end of trace: (2, "traces/canneal_big2.champsimtrace")
*** Reached end of trace: (3, "traces/canneal_big3.champsimtrace")
*** Reached end of trace: (0, "traces/canneal_big0.champsimtrace")
*** Reached end of trace: (2, "traces/canneal_big2.champsimtrace")
*** Reached end of trace: (3, "traces/canneal_big3.champsimtrace")
Heartbeat CPU 2 instructions: 850000001 cycles: 212504204 heartbeat IPC: 4 cumulative IPC: 4 (Simulation time: 06 hr 13 min 05 sec)
Heartbeat CPU 3 instructions: 850000001 cycles: 212504251 heartbeat IPC: 4 cumulative IPC: 4 (Simulation time: 06 hr 13 min 05 sec)
*** Reached end of trace: (0, "traces/canneal_big0.champsimtrace")
Heartbeat CPU 0 instructions: 550000135 cycles: 213434672 heartbeat IPC: 2.544 cumulative IPC: 2.553 (Simulation time: 06 hr 14 min 47 sec)
*** Reached end of trace: (2, "traces/canneal_big2.champsimtrace")
*** Reached end of trace: (3, "traces/canneal_big3.champsimtrace")
*** Reached end of trace: (2, "traces/canneal_big2.champsimtrace")
*** Reached end of trace: (3, "traces/canneal_big3.champsimtrace")
Heartbeat CPU 2 instructions: 860000001 cycles: 215004204 heartbeat IPC: 4 cumulative IPC: 4 (Simulation time: 06 hr 17 min 41 sec)
Heartbeat CPU 3 instructions: 860000001 cycles: 215004251 heartbeat IPC: 4 cumulative IPC: 4 (Simulation time: 06 hr 17 min 41 sec)
*** Reached end of trace: (0, "traces/canneal_big0.champsimtrace")
*** Reached end of trace: (1, "traces/canneal_big1.champsimtrace")
*** Reached end of trace: (2, "traces/canneal_big2.champsimtrace")
*** Reached end of trace: (3, "traces/canneal_big3.champsimtrace")
*** Reached end of trace: (0, "traces/canneal_big0.champsimtrace")
Heartbeat CPU 0 instructions: 560000138 cycles: 217351676 heartbeat IPC: 2.553 cumulative IPC: 2.553 (Simulation time: 06 hr 22 min 07 sec)
*** Reached end of trace: (2, "traces/canneal_big2.champsimtrace")
*** Reached end of trace: (3, "traces/canneal_big3.champsimtrace")
Heartbeat CPU 2 instructions: 870000001 cycles: 217504204 heartbeat IPC: 4 cumulative IPC: 4 (Simulation time: 06 hr 22 min 23 sec)
Heartbeat CPU 3 instructions: 870000001 cycles: 217504251 heartbeat IPC: 4 cumulative IPC: 4 (Simulation time: 06 hr 22 min 23 sec)
*** Reached end of trace: (2, "traces/canneal_big2.champsimtrace")
*** Reached end of trace: (3, "traces/canneal_big3.champsimtrace")
*** Reached end of trace: (0, "traces/canneal_big0.champsimtrace")
*** Reached end of trace: (2, "traces/canneal_big2.champsimtrace")
*** Reached end of trace: (3, "traces/canneal_big3.champsimtrace")
Heartbeat CPU 2 instructions: 880000001 cycles: 220004204 heartbeat IPC: 4 cumulative IPC: 4 (Simulation time: 06 hr 27 min 12 sec)
Heartbeat CPU 3 instructions: 880000001 cycles: 220004251 heartbeat IPC: 4 cumulative IPC: 4 (Simulation time: 06 hr 27 min 12 sec)
*** Reached end of trace: (2, "traces/canneal_big2.champsimtrace")
*** Reached end of trace: (3, "traces/canneal_big3.champsimtrace")
*** Reached end of trace: (0, "traces/canneal_big0.champsimtrace")
Heartbeat CPU 0 instructions: 570000138 cycles: 221276320 heartbeat IPC: 2.548 cumulative IPC: 2.552 (Simulation time: 06 hr 29 min 31 sec)
*** Reached end of trace: (2, "traces/canneal_big2.champsimtrace")
*** Reached end of trace: (3, "traces/canneal_big3.champsimtrace")
Heartbeat CPU 2 instructions: 890000001 cycles: 222504204 heartbeat IPC: 4 cumulative IPC: 4 (Simulation time: 06 hr 31 min 54 sec)
Heartbeat CPU 3 instructions: 890000001 cycles: 222504251 heartbeat IPC: 4 cumulative IPC: 4 (Simulation time: 06 hr 31 min 54 sec)
*** Reached end of trace: (0, "traces/canneal_big0.champsimtrace")
*** Reached end of trace: (2, "traces/canneal_big2.champsimtrace")
*** Reached end of trace: (3, "traces/canneal_big3.champsimtrace")
*** Reached end of trace: (2, "traces/canneal_big2.champsimtrace")
*** Reached end of trace: (3, "traces/canneal_big3.champsimtrace")
Heartbeat CPU 2 instructions: 900000001 cycles: 225004204 heartbeat IPC: 4 cumulative IPC: 4 (Simulation time: 06 hr 36 min 22 sec)
Heartbeat CPU 3 instructions: 900000001 cycles: 225004251 heartbeat IPC: 4 cumulative IPC: 4 (Simulation time: 06 hr 36 min 22 sec)
*** Reached end of trace: (0, "traces/canneal_big0.champsimtrace")
Heartbeat CPU 0 instructions: 580000139 cycles: 225202819 heartbeat IPC: 2.547 cumulative IPC: 2.552 (Simulation time: 06 hr 36 min 44 sec)
*** Reached end of trace: (2, "traces/canneal_big2.champsimtrace")
*** Reached end of trace: (3, "traces/canneal_big3.champsimtrace")
*** Reached end of trace: (0, "traces/canneal_big0.champsimtrace")
*** Reached end of trace: (2, "traces/canneal_big2.champsimtrace")
*** Reached end of trace: (3, "traces/canneal_big3.champsimtrace")
Heartbeat CPU 2 instructions: 910000001 cycles: 227504204 heartbeat IPC: 4 cumulative IPC: 4 (Simulation time: 06 hr 41 min 13 sec)
Heartbeat CPU 3 instructions: 910000001 cycles: 227504251 heartbeat IPC: 4 cumulative IPC: 4 (Simulation time: 06 hr 41 min 13 sec)
*** Reached end of trace: (2, "traces/canneal_big2.champsimtrace")
*** Reached end of trace: (3, "traces/canneal_big3.champsimtrace")
*** Reached end of trace: (0, "traces/canneal_big0.champsimtrace")
Heartbeat CPU 0 instructions: 590000142 cycles: 229126193 heartbeat IPC: 2.549 cumulative IPC: 2.552 (Simulation time: 06 hr 44 min 19 sec)
*** Reached end of trace: (1, "traces/canneal_big1.champsimtrace")
Heartbeat CPU 1 instructions: 240000036 cycles: 229981549 heartbeat IPC: 0.3501 cumulative IPC: 0.3501 (Simulation time: 06 hr 45 min 57 sec)
*** Reached end of trace: (2, "traces/canneal_big2.champsimtrace")
*** Reached end of trace: (3, "traces/canneal_big3.champsimtrace")
Heartbeat CPU 2 instructions: 920000001 cycles: 230004204 heartbeat IPC: 4 cumulative IPC: 4 (Simulation time: 06 hr 45 min 59 sec)
Heartbeat CPU 3 instructions: 920000001 cycles: 230004251 heartbeat IPC: 4 cumulative IPC: 4 (Simulation time: 06 hr 45 min 59 sec)
*** Reached end of trace: (0, "traces/canneal_big0.champsimtrace")
*** Reached end of trace: (2, "traces/canneal_big2.champsimtrace")
*** Reached end of trace: (3, "traces/canneal_big3.champsimtrace")
*** Reached end of trace: (2, "traces/canneal_big2.champsimtrace")
*** Reached end of trace: (3, "traces/canneal_big3.champsimtrace")
Heartbeat CPU 2 instructions: 930000001 cycles: 232504204 heartbeat IPC: 4 cumulative IPC: 4 (Simulation time: 06 hr 50 min 31 sec)
Heartbeat CPU 3 instructions: 930000001 cycles: 232504251 heartbeat IPC: 4 cumulative IPC: 4 (Simulation time: 06 hr 50 min 31 sec)
*** Reached end of trace: (0, "traces/canneal_big0.champsimtrace")
Heartbeat CPU 0 instructions: 600000145 cycles: 233049061 heartbeat IPC: 2.549 cumulative IPC: 2.552 (Simulation time: 06 hr 51 min 29 sec)
*** Reached end of trace: (2, "traces/canneal_big2.champsimtrace")
*** Reached end of trace: (3, "traces/canneal_big3.champsimtrace")
*** Reached end of trace: (2, "traces/canneal_big2.champsimtrace")
*** Reached end of trace: (3, "traces/canneal_big3.champsimtrace")
Heartbeat CPU 2 instructions: 940000001 cycles: 235004204 heartbeat IPC: 4 cumulative IPC: 4 (Simulation time: 06 hr 55 min 06 sec)
Heartbeat CPU 3 instructions: 940000001 cycles: 235004251 heartbeat IPC: 4 cumulative IPC: 4 (Simulation time: 06 hr 55 min 06 sec)
*** Reached end of trace: (0, "traces/canneal_big0.champsimtrace")
*** Reached end of trace: (2, "traces/canneal_big2.champsimtrace")
*** Reached end of trace: (3, "traces/canneal_big3.champsimtrace")
*** Reached end of trace: (0, "traces/canneal_big0.champsimtrace")
Heartbeat CPU 0 instructions: 610000146 cycles: 236978692 heartbeat IPC: 2.545 cumulative IPC: 2.552 (Simulation time: 06 hr 58 min 39 sec)
*** Reached end of trace: (2, "traces/canneal_big2.champsimtrace")
*** Reached end of trace: (3, "traces/canneal_big3.champsimtrace")
Heartbeat CPU 2 instructions: 950000001 cycles: 237504204 heartbeat IPC: 4 cumulative IPC: 4 (Simulation time: 06 hr 59 min 42 sec)
Heartbeat CPU 3 instructions: 950000001 cycles: 237504251 heartbeat IPC: 4 cumulative IPC: 4 (Simulation time: 06 hr 59 min 42 sec)
*** Reached end of trace: (2, "traces/canneal_big2.champsimtrace")
*** Reached end of trace: (3, "traces/canneal_big3.champsimtrace")
*** Reached end of trace: (0, "traces/canneal_big0.champsimtrace")
*** Reached end of trace: (2, "traces/canneal_big2.champsimtrace")
*** Reached end of trace: (3, "traces/canneal_big3.champsimtrace")
Heartbeat CPU 2 instructions: 960000001 cycles: 240004204 heartbeat IPC: 4 cumulative IPC: 4 (Simulation time: 07 hr 04 min 21 sec)
Heartbeat CPU 3 instructions: 960000001 cycles: 240004251 heartbeat IPC: 4 cumulative IPC: 4 (Simulation time: 07 hr 04 min 21 sec)
*** Reached end of trace: (0, "traces/canneal_big0.champsimtrace")
Heartbeat CPU 0 instructions: 620000149 cycles: 240906095 heartbeat IPC: 2.546 cumulative IPC: 2.552 (Simulation time: 07 hr 06 min 01 sec)
*** Reached end of trace: (2, "traces/canneal_big2.champsimtrace")
*** Reached end of trace: (3, "traces/canneal_big3.champsimtrace")
*** Reached end of trace: (2, "traces/canneal_big2.champsimtrace")
*** Reached end of trace: (3, "traces/canneal_big3.champsimtrace")
Heartbeat CPU 2 instructions: 970000001 cycles: 242504204 heartbeat IPC: 4 cumulative IPC: 4 (Simulation time: 07 hr 08 min 55 sec)
Heartbeat CPU 3 instructions: 970000001 cycles: 242504251 heartbeat IPC: 4 cumulative IPC: 4 (Simulation time: 07 hr 08 min 55 sec)
*** Reached end of trace: (0, "traces/canneal_big0.champsimtrace")
*** Reached end of trace: (2, "traces/canneal_big2.champsimtrace")
*** Reached end of trace: (3, "traces/canneal_big3.champsimtrace")
*** Reached end of trace: (1, "traces/canneal_big1.champsimtrace")
*** Reached end of trace: (0, "traces/canneal_big0.champsimtrace")
Heartbeat CPU 0 instructions: 630000149 cycles: 244821637 heartbeat IPC: 2.554 cumulative IPC: 2.552 (Simulation time: 07 hr 13 min 11 sec)
*** Reached end of trace: (2, "traces/canneal_big2.champsimtrace")
*** Reached end of trace: (3, "traces/canneal_big3.champsimtrace")
Heartbeat CPU 2 instructions: 980000001 cycles: 245004204 heartbeat IPC: 4 cumulative IPC: 4 (Simulation time: 07 hr 13 min 31 sec)
Heartbeat CPU 3 instructions: 980000001 cycles: 245004251 heartbeat IPC: 4 cumulative IPC: 4 (Simulation time: 07 hr 13 min 31 sec)
*** Reached end of trace: (2, "traces/canneal_big2.champsimtrace")
*** Reached end of trace: (3, "traces/canneal_big3.champsimtrace")
*** Reached end of trace: (0, "traces/canneal_big0.champsimtrace")
*** Reached end of trace: (2, "traces/canneal_big2.champsimtrace")
*** Reached end of trace: (3, "traces/canneal_big3.champsimtrace")
Heartbeat CPU 2 instructions: 990000001 cycles: 247504204 heartbeat IPC: 4 cumulative IPC: 4 (Simulation time: 07 hr 18 min 12 sec)
Heartbeat CPU 3 instructions: 990000001 cycles: 247504251 heartbeat IPC: 4 cumulative IPC: 4 (Simulation time: 07 hr 18 min 12 sec)
*** Reached end of trace: (0, "traces/canneal_big0.champsimtrace")
Heartbeat CPU 0 instructions: 640000151 cycles: 248741670 heartbeat IPC: 2.551 cumulative IPC: 2.552 (Simulation time: 07 hr 20 min 27 sec)
*** Reached end of trace: (2, "traces/canneal_big2.champsimtrace")
*** Reached end of trace: (3, "traces/canneal_big3.champsimtrace")
*** Reached end of trace: (2, "traces/canneal_big2.champsimtrace")
*** Reached end of trace: (3, "traces/canneal_big3.champsimtrace")
Heartbeat CPU 2 instructions: 1000000001 cycles: 250004204 heartbeat IPC: 4 cumulative IPC: 4 (Simulation time: 07 hr 22 min 47 sec)
Heartbeat CPU 3 instructions: 1000000001 cycles: 250004251 heartbeat IPC: 4 cumulative IPC: 4 (Simulation time: 07 hr 22 min 47 sec)
*** Reached end of trace: (0, "traces/canneal_big0.champsimtrace")
*** Reached end of trace: (2, "traces/canneal_big2.champsimtrace")
*** Reached end of trace: (3, "traces/canneal_big3.champsimtrace")
*** Reached end of trace: (2, "traces/canneal_big2.champsimtrace")
*** Reached end of trace: (3, "traces/canneal_big3.champsimtrace")
Heartbeat CPU 2 instructions: 1010000001 cycles: 252504204 heartbeat IPC: 4 cumulative IPC: 4 (Simulation time: 07 hr 27 min 23 sec)
Heartbeat CPU 3 instructions: 1010000001 cycles: 252504251 heartbeat IPC: 4 cumulative IPC: 4 (Simulation time: 07 hr 27 min 23 sec)
*** Reached end of trace: (0, "traces/canneal_big0.champsimtrace")
Heartbeat CPU 0 instructions: 650000151 cycles: 252657669 heartbeat IPC: 2.554 cumulative IPC: 2.552 (Simulation time: 07 hr 27 min 41 sec)
*** Reached end of trace: (2, "traces/canneal_big2.champsimtrace")
*** Reached end of trace: (3, "traces/canneal_big3.champsimtrace")
*** Reached end of trace: (0, "traces/canneal_big0.champsimtrace")
[...]
cpu0->cpu0_ITLB PREFETCH REQUESTED:          0 ISSUED:          0 USEFUL:          0 USELESS:          0
cpu0->cpu0_ITLB AVERAGE MISS LATENCY: 3.94 cycles
cpu0_ITLB COHERENCE INVALIDATIONS:          0
cpu0_ITLB COHERENCE WRITE-HIT OTHER-SHARER EVENTS:          0
cpu0->cpu0_DTLB TOTAL        ACCESS:   60762575 HIT:   60604471 MISS:     158104 MSHR_MERGE:      34448
cpu0->cpu0_DTLB LOAD         ACCESS:   60762575 HIT:   60604471 MISS:     158104 MSHR_MERGE:      34448
cpu0->cpu0_DTLB RFO          ACCESS:          0 HIT:          0 MISS:          0 MSHR_MERGE:          0
cpu0->cpu0_DTLB PREFETCH     ACCESS:          0 HIT:          0 MISS:          0 MSHR_MERGE:          0
cpu0->cpu0_DTLB WRITE        ACCESS:          0 HIT:          0 MISS:          0 MSHR_MERGE:          0
cpu0->cpu0_DTLB TRANSLATION  ACCESS:          0 HIT:          0 MISS:          0 MSHR_MERGE:          0
cpu0->cpu0_DTLB PREFETCH REQUESTED:          0 ISSUED:          0 USEFUL:          0 USELESS:          0
cpu0->cpu0_DTLB AVERAGE MISS LATENCY: 4.001 cycles
cpu0_DTLB COHERENCE INVALIDATIONS:          0
cpu0_DTLB COHERENCE WRITE-HIT OTHER-SHARER EVENTS:          0
cpu0->LLC TOTAL        ACCESS:    4068182 HIT:    2380845 MISS:    1687337 MSHR_MERGE:          0
cpu0->LLC LOAD         ACCESS:     458970 HIT:     345890 MISS:     113080 MSHR_MERGE:          0
cpu0->LLC RFO          ACCESS:    1795871 HIT:    1007538 MISS:     788333 MSHR_MERGE:          0
cpu0->LLC PREFETCH     ACCESS:          0 HIT:          0 MISS:          0 MSHR_MERGE:          0
cpu0->LLC WRITE        ACCESS:    1813341 HIT:    1027417 MISS:     785924 MSHR_MERGE:          0
cpu0->LLC TRANSLATION  ACCESS:          0 HIT:          0 MISS:          0 MSHR_MERGE:          0
cpu0->LLC PREFETCH REQUESTED:          0 ISSUED:          0 USEFUL:          0 USELESS:          0
cpu0->LLC AVERAGE MISS LATENCY: 221.4 cycles
cpu1->LLC TOTAL        ACCESS:     969664 HIT:     277074 MISS:     692590 MSHR_MERGE:          1
cpu1->LLC LOAD         ACCESS:     775851 HIT:     226403 MISS:     549448 MSHR_MERGE:          1
cpu1->LLC RFO          ACCESS:          0 HIT:          0 MISS:          0 MSHR_MERGE:          0
cpu1->LLC PREFETCH     ACCESS:          0 HIT:          0 MISS:          0 MSHR_MERGE:          0
cpu1->LLC WRITE        ACCESS:          0 HIT:          0 MISS:          0 MSHR_MERGE:          0
cpu1->LLC TRANSLATION  ACCESS:     193813 HIT:      50671 MISS:     143142 MSHR_MERGE:          0
cpu1->LLC PREFETCH REQUESTED:          0 ISSUED:          0 USEFUL:          0 USELESS:          0
cpu1->LLC AVERAGE MISS LATENCY: 539.4 cycles
LLC COHERENCE INVALIDATIONS:      45906
LLC COHERENCE WRITE-HIT OTHER-SHARER EVENTS:      45906

Region of Interest Statistics

CPU 3 cumulative IPC: 4 instructions: 50000000 cycles: 12500000
CPU 3 Branch Prediction Accuracy: -% MPKI: 0 Average ROB Occupancy at Mispredict: -
Branch type MPKI
BRANCH_DIRECT_JUMP: 0
BRANCH_INDIRECT: 0
BRANCH_CONDITIONAL: 0
BRANCH_DIRECT_CALL: 0
BRANCH_INDIRECT_CALL: 0
BRANCH_RETURN: 0


CPU 2 cumulative IPC: 4 instructions: 50000000 cycles: 12500000
CPU 2 Branch Prediction Accuracy: -% MPKI: 0 Average ROB Occupancy at Mispredict: -
Branch type MPKI
BRANCH_DIRECT_JUMP: 0
BRANCH_INDIRECT: 0
BRANCH_CONDITIONAL: 0
BRANCH_DIRECT_CALL: 0
BRANCH_INDIRECT_CALL: 0
BRANCH_RETURN: 0


CPU 1 cumulative IPC: 0.3501 instructions: 50000003 cycles: 142834345
CPU 1 Branch Prediction Accuracy: -% MPKI: 0 Average ROB Occupancy at Mispredict: -
Branch type MPKI
BRANCH_DIRECT_JUMP: 0
BRANCH_INDIRECT: 0
BRANCH_CONDITIONAL: 0
BRANCH_DIRECT_CALL: 0
BRANCH_INDIRECT_CALL: 0
BRANCH_RETURN: 0


CPU 0 cumulative IPC: 2.551 instructions: 50000003 cycles: 19599063
CPU 0 Branch Prediction Accuracy: -% MPKI: 0 Average ROB Occupancy at Mispredict: -
Branch type MPKI
BRANCH_DIRECT_JUMP: 0
BRANCH_INDIRECT: 0
BRANCH_CONDITIONAL: 0
BRANCH_DIRECT_CALL: 0
BRANCH_INDIRECT_CALL: 0
BRANCH_RETURN: 0

cpu3_STLB COHERENCE INVALIDATIONS:          0
cpu3_STLB COHERENCE WRITE-HIT OTHER-SHARER EVENTS:          0
cpu3_L2C COHERENCE INVALIDATIONS:          0
cpu3_L2C COHERENCE WRITE-HIT OTHER-SHARER EVENTS:          0
cpu3->cpu3_L1I TOTAL        ACCESS:   81723766 HIT:   81723766 MISS:          0 MSHR_MERGE:          0
cpu3->cpu3_L1I LOAD         ACCESS:   81723766 HIT:   81723766 MISS:          0 MSHR_MERGE:          0
cpu3->cpu3_L1I RFO          ACCESS:          0 HIT:          0 MISS:          0 MSHR_MERGE:          0
cpu3->cpu3_L1I PREFETCH     ACCESS:          0 HIT:          0 MISS:          0 MSHR_MERGE:          0
cpu3->cpu3_L1I WRITE        ACCESS:          0 HIT:          0 MISS:          0 MSHR_MERGE:          0
cpu3->cpu3_L1I TRANSLATION  ACCESS:          0 HIT:          0 MISS:          0 MSHR_MERGE:          0
cpu3->cpu3_L1I PREFETCH REQUESTED:          0 ISSUED:          0 USEFUL:          0 USELESS:          0
cpu3->cpu3_L1I AVERAGE MISS LATENCY: - cycles
cpu3_L1I COHERENCE INVALIDATIONS:          0
cpu3_L1I COHERENCE WRITE-HIT OTHER-SHARER EVENTS:          0
cpu3_L1D COHERENCE INVALIDATIONS:          0
cpu3_L1D COHERENCE WRITE-HIT OTHER-SHARER EVENTS:          0
cpu3->cpu3_ITLB TOTAL        ACCESS:   68440454 HIT:   68440454 MISS:          0 MSHR_MERGE:          0
cpu3->cpu3_ITLB LOAD         ACCESS:   68440454 HIT:   68440454 MISS:          0 MSHR_MERGE:          0
cpu3->cpu3_ITLB RFO          ACCESS:          0 HIT:          0 MISS:          0 MSHR_MERGE:          0
cpu3->cpu3_ITLB PREFETCH     ACCESS:          0 HIT:          0 MISS:          0 MSHR_MERGE:          0
cpu3->cpu3_ITLB WRITE        ACCESS:          0 HIT:          0 MISS:          0 MSHR_MERGE:          0
cpu3->cpu3_ITLB TRANSLATION  ACCESS:          0 HIT:          0 MISS:          0 MSHR_MERGE:          0
cpu3->cpu3_ITLB PREFETCH REQUESTED:          0 ISSUED:          0 USEFUL:          0 USELESS:          0
cpu3->cpu3_ITLB AVERAGE MISS LATENCY: - cycles
cpu3_ITLB COHERENCE INVALIDATIONS:          0
cpu3_ITLB COHERENCE WRITE-HIT OTHER-SHARER EVENTS:          0
cpu3_DTLB COHERENCE INVALIDATIONS:          0
cpu3_DTLB COHERENCE WRITE-HIT OTHER-SHARER EVENTS:          0
cpu2_STLB COHERENCE INVALIDATIONS:          0
cpu2_STLB COHERENCE WRITE-HIT OTHER-SHARER EVENTS:          0
cpu2_L2C COHERENCE INVALIDATIONS:          0
cpu2_L2C COHERENCE WRITE-HIT OTHER-SHARER EVENTS:          0
cpu2->cpu2_L1I TOTAL        ACCESS:   82090536 HIT:   82090536 MISS:          0 MSHR_MERGE:          0
cpu2->cpu2_L1I LOAD         ACCESS:   82090536 HIT:   82090536 MISS:          0 MSHR_MERGE:          0
cpu2->cpu2_L1I RFO          ACCESS:          0 HIT:          0 MISS:          0 MSHR_MERGE:          0
cpu2->cpu2_L1I PREFETCH     ACCESS:          0 HIT:          0 MISS:          0 MSHR_MERGE:          0
cpu2->cpu2_L1I WRITE        ACCESS:          0 HIT:          0 MISS:          0 MSHR_MERGE:          0
cpu2->cpu2_L1I TRANSLATION  ACCESS:          0 HIT:          0 MISS:          0 MSHR_MERGE:          0
cpu2->cpu2_L1I PREFETCH REQUESTED:          0 ISSUED:          0 USEFUL:          0 USELESS:          0
cpu2->cpu2_L1I AVERAGE MISS LATENCY: - cycles
cpu2_L1I COHERENCE INVALIDATIONS:          0
cpu2_L1I COHERENCE WRITE-HIT OTHER-SHARER EVENTS:          0
cpu2_L1D COHERENCE INVALIDATIONS:          0
cpu2_L1D COHERENCE WRITE-HIT OTHER-SHARER EVENTS:          0
cpu2->cpu2_ITLB TOTAL        ACCESS:   68495078 HIT:   68495078 MISS:          0 MSHR_MERGE:          0
cpu2->cpu2_ITLB LOAD         ACCESS:   68495078 HIT:   68495078 MISS:          0 MSHR_MERGE:          0
cpu2->cpu2_ITLB RFO          ACCESS:          0 HIT:          0 MISS:          0 MSHR_MERGE:          0
cpu2->cpu2_ITLB PREFETCH     ACCESS:          0 HIT:          0 MISS:          0 MSHR_MERGE:          0
cpu2->cpu2_ITLB WRITE        ACCESS:          0 HIT:          0 MISS:          0 MSHR_MERGE:          0
cpu2->cpu2_ITLB TRANSLATION  ACCESS:          0 HIT:          0 MISS:          0 MSHR_MERGE:          0
cpu2->cpu2_ITLB PREFETCH REQUESTED:          0 ISSUED:          0 USEFUL:          0 USELESS:          0
cpu2->cpu2_ITLB AVERAGE MISS LATENCY: - cycles
cpu2_ITLB COHERENCE INVALIDATIONS:          0
cpu2_ITLB COHERENCE WRITE-HIT OTHER-SHARER EVENTS:          0
cpu2_DTLB COHERENCE INVALIDATIONS:          0
cpu2_DTLB COHERENCE WRITE-HIT OTHER-SHARER EVENTS:          0
cpu1->cpu1_STLB TOTAL        ACCESS:    1110352 HIT:    1012223 MISS:      98129 MSHR_MERGE:          0
cpu1->cpu1_STLB LOAD         ACCESS:    1110352 HIT:    1012223 MISS:      98129 MSHR_MERGE:          0
cpu1->cpu1_STLB RFO          ACCESS:          0 HIT:          0 MISS:          0 MSHR_MERGE:          0
cpu1->cpu1_STLB PREFETCH     ACCESS:          0 HIT:          0 MISS:          0 MSHR_MERGE:          0
cpu1->cpu1_STLB WRITE        ACCESS:          0 HIT:          0 MISS:          0 MSHR_MERGE:          0
cpu1->cpu1_STLB TRANSLATION  ACCESS:          0 HIT:          0 MISS:          0 MSHR_MERGE:          0
cpu1->cpu1_STLB PREFETCH REQUESTED:          0 ISSUED:          0 USEFUL:          0 USELESS:          0
cpu1->cpu1_STLB AVERAGE MISS LATENCY: 399.3 cycles
cpu1_STLB COHERENCE INVALIDATIONS:          0
cpu1_STLB COHERENCE WRITE-HIT OTHER-SHARER EVENTS:          0
cpu1->cpu1_L2C TOTAL        ACCESS:    1176466 HIT:     206802 MISS:     969664 MSHR_MERGE:          0
cpu1->cpu1_L2C LOAD         ACCESS:     982023 HIT:     206172 MISS:     775851 MSHR_MERGE:          0
cpu1->cpu1_L2C RFO          ACCESS:          0 HIT:          0 MISS:          0 MSHR_MERGE:          0
cpu1->cpu1_L2C PREFETCH     ACCESS:          0 HIT:          0 MISS:          0 MSHR_MERGE:          0
cpu1->cpu1_L2C WRITE        ACCESS:          0 HIT:          0 MISS:          0 MSHR_MERGE:          0
cpu1->cpu1_L2C TRANSLATION  ACCESS:     194443 HIT:        630 MISS:     193813 MSHR_MERGE:          0
cpu1->cpu1_L2C PREFETCH REQUESTED:          0 ISSUED:          0 USEFUL:          0 USELESS:          0
cpu1->cpu1_L2C AVERAGE MISS LATENCY: 183.3 cycles
cpu1_L2C COHERENCE INVALIDATIONS:          0
cpu1_L2C COHERENCE WRITE-HIT OTHER-SHARER EVENTS:          0
cpu1->cpu1_L1I TOTAL        ACCESS:   16596969 HIT:   15538445 MISS:    1058524 MSHR_MERGE:      76501
cpu1->cpu1_L1I LOAD         ACCESS:   16596969 HIT:   15538445 MISS:    1058524 MSHR_MERGE:      76501
cpu1->cpu1_L1I RFO          ACCESS:          0 HIT:          0 MISS:          0 MSHR_MERGE:          0
cpu1->cpu1_L1I PREFETCH     ACCESS:          0 HIT:          0 MISS:          0 MSHR_MERGE:          0
cpu1->cpu1_L1I WRITE        ACCESS:          0 HIT:          0 MISS:          0 MSHR_MERGE:          0
cpu1->cpu1_L1I TRANSLATION  ACCESS:          0 HIT:          0 MISS:          0 MSHR_MERGE:          0
cpu1->cpu1_L1I PREFETCH REQUESTED:          0 ISSUED:          0 USEFUL:          0 USELESS:          0
cpu1->cpu1_L1I AVERAGE MISS LATENCY: 151.6 cycles
cpu1_L1I COHERENCE INVALIDATIONS:          0
cpu1_L1I COHERENCE WRITE-HIT OTHER-SHARER EVENTS:          0
cpu1->cpu1_L1D TOTAL        ACCESS:     196324 HIT:       1881 MISS:     194443 MSHR_MERGE:          0
cpu1->cpu1_L1D LOAD         ACCESS:          0 HIT:          0 MISS:          0 MSHR_MERGE:          0
cpu1->cpu1_L1D RFO          ACCESS:          0 HIT:          0 MISS:          0 MSHR_MERGE:          0
cpu1->cpu1_L1D PREFETCH     ACCESS:          0 HIT:          0 MISS:          0 MSHR_MERGE:          0
cpu1->cpu1_L1D WRITE        ACCESS:          0 HIT:          0 MISS:          0 MSHR_MERGE:          0
cpu1->cpu1_L1D TRANSLATION  ACCESS:     196324 HIT:       1881 MISS:     194443 MSHR_MERGE:          0
cpu1->cpu1_L1D PREFETCH REQUESTED:          0 ISSUED:          0 USEFUL:          0 USELESS:          0
cpu1->cpu1_L1D AVERAGE MISS LATENCY: 195.5 cycles
cpu1_L1D COHERENCE INVALIDATIONS:          0
cpu1_L1D COHERENCE WRITE-HIT OTHER-SHARER EVENTS:          0
cpu1->cpu1_ITLB TOTAL        ACCESS:   16332872 HIT:   15197091 MISS:    1135781 MSHR_MERGE:      25429
cpu1->cpu1_ITLB LOAD         ACCESS:   16332872 HIT:   15197091 MISS:    1135781 MSHR_MERGE:      25429
cpu1->cpu1_ITLB RFO          ACCESS:          0 HIT:          0 MISS:          0 MSHR_MERGE:          0
cpu1->cpu1_ITLB PREFETCH     ACCESS:          0 HIT:          0 MISS:          0 MSHR_MERGE:          0
cpu1->cpu1_ITLB WRITE        ACCESS:          0 HIT:          0 MISS:          0 MSHR_MERGE:          0
cpu1->cpu1_ITLB TRANSLATION  ACCESS:          0 HIT:          0 MISS:          0 MSHR_MERGE:          0
cpu1->cpu1_ITLB PREFETCH REQUESTED:          0 ISSUED:          0 USEFUL:          0 USELESS:          0
cpu1->cpu1_ITLB AVERAGE MISS LATENCY: 39.38 cycles
cpu1_ITLB COHERENCE INVALIDATIONS:          0
cpu1_ITLB COHERENCE WRITE-HIT OTHER-SHARER EVENTS:          0
cpu1_DTLB COHERENCE INVALIDATIONS:          0
cpu1_DTLB COHERENCE WRITE-HIT OTHER-SHARER EVENTS:          0
cpu0->cpu0_STLB TOTAL        ACCESS:     136139 HIT:     136139 MISS:          0 MSHR_MERGE:          0
cpu0->cpu0_STLB LOAD         ACCESS:     136139 HIT:     136139 MISS:          0 MSHR_MERGE:          0
cpu0->cpu0_STLB RFO          ACCESS:          0 HIT:          0 MISS:          0 MSHR_MERGE:          0
cpu0->cpu0_STLB PREFETCH     ACCESS:          0 HIT:          0 MISS:          0 MSHR_MERGE:          0
cpu0->cpu0_STLB WRITE        ACCESS:          0 HIT:          0 MISS:          0 MSHR_MERGE:          0
cpu0->cpu0_STLB TRANSLATION  ACCESS:          0 HIT:          0 MISS:          0 MSHR_MERGE:          0
cpu0->cpu0_STLB PREFETCH REQUESTED:          0 ISSUED:          0 USEFUL:          0 USELESS:          0
cpu0->cpu0_STLB AVERAGE MISS LATENCY: - cycles
cpu0_STLB COHERENCE INVALIDATIONS:          0
cpu0_STLB COHERENCE WRITE-HIT OTHER-SHARER EVENTS:          0
cpu0->cpu0_L2C TOTAL        ACCESS:    4371881 HIT:    2116967 MISS:    2254914 MSHR_MERGE:          0
cpu0->cpu0_L2C LOAD         ACCESS:     687565 HIT:     228595 MISS:     458970 MSHR_MERGE:          0
cpu0->cpu0_L2C RFO          ACCESS:    1828497 HIT:      32626 MISS:    1795871 MSHR_MERGE:          0
cpu0->cpu0_L2C PREFETCH     ACCESS:          0 HIT:          0 MISS:          0 MSHR_MERGE:          0
cpu0->cpu0_L2C WRITE        ACCESS:    1855819 HIT:    1855746 MISS:         73 MSHR_MERGE:          0
cpu0->cpu0_L2C TRANSLATION  ACCESS:          0 HIT:          0 MISS:          0 MSHR_MERGE:          0
cpu0->cpu0_L2C PREFETCH REQUESTED:          0 ISSUED:          0 USEFUL:          0 USELESS:          0
cpu0->cpu0_L2C AVERAGE MISS LATENCY: 105.9 cycles
cpu0_L2C COHERENCE INVALIDATIONS:          0
cpu0_L2C COHERENCE WRITE-HIT OTHER-SHARER EVENTS:          0
cpu0->cpu0_L1I TOTAL        ACCESS:   56397981 HIT:   56266171 MISS:     131810 MSHR_MERGE:      32750
cpu0->cpu0_L1I LOAD         ACCESS:   56397981 HIT:   56266171 MISS:     131810 MSHR_MERGE:      32750
cpu0->cpu0_L1I RFO          ACCESS:          0 HIT:          0 MISS:          0 MSHR_MERGE:          0
cpu0->cpu0_L1I PREFETCH     ACCESS:          0 HIT:          0 MISS:          0 MSHR_MERGE:          0
cpu0->cpu0_L1I WRITE        ACCESS:          0 HIT:          0 MISS:          0 MSHR_MERGE:          0
cpu0->cpu0_L1I TRANSLATION  ACCESS:          0 HIT:          0 MISS:          0 MSHR_MERGE:          0
cpu0->cpu0_L1I PREFETCH REQUESTED:          0 ISSUED:          0 USEFUL:          0 USELESS:          0
cpu0->cpu0_L1I AVERAGE MISS LATENCY: 40.47 cycles
cpu0_L1I COHERENCE INVALIDATIONS:          0
cpu0_L1I COHERENCE WRITE-HIT OTHER-SHARER EVENTS:          0
cpu0->cpu0_L1D TOTAL        ACCESS:   73049145 HIT:   63089084 MISS:    9960061 MSHR_MERGE:    7541077
cpu0->cpu0_L1D LOAD         ACCESS:    6963414 HIT:    6010399 MISS:     953015 MSHR_MERGE:     364510
cpu0->cpu0_L1D RFO          ACCESS:          0 HIT:          0 MISS:          0 MSHR_MERGE:          0
cpu0->cpu0_L1D PREFETCH     ACCESS:          0 HIT:          0 MISS:          0 MSHR_MERGE:          0
cpu0->cpu0_L1D WRITE        ACCESS:   66085731 HIT:   57078685 MISS:    9007046 MSHR_MERGE:    7176567
cpu0->cpu0_L1D TRANSLATION  ACCESS:          0 HIT:          0 MISS:          0 MSHR_MERGE:          0
cpu0->cpu0_L1D PREFETCH REQUESTED:          0 ISSUED:          0 USEFUL:          0 USELESS:          0
cpu0->cpu0_L1D AVERAGE MISS LATENCY: 105.4 cycles
cpu0_L1D COHERENCE INVALIDATIONS:          0
cpu0_L1D COHERENCE WRITE-HIT OTHER-SHARER EVENTS:          0
cpu0->cpu0_ITLB TOTAL        ACCESS:   48561275 HIT:   48541519 MISS:      19756 MSHR_MERGE:       7273
cpu0->cpu0_ITLB LOAD         ACCESS:   48561275 HIT:   48541519 MISS:      19756 MSHR_MERGE:       7273
cpu0->cpu0_ITLB RFO          ACCESS:          0 HIT:          0 MISS:          0 MSHR_MERGE:          0
cpu0->cpu0_ITLB PREFETCH     ACCESS:          0 HIT:          0 MISS:          0 MSHR_MERGE:          0
cpu0->cpu0_ITLB WRITE        ACCESS:          0 HIT:          0 MISS:          0 MSHR_MERGE:          0
cpu0->cpu0_ITLB TRANSLATION  ACCESS:          0 HIT:          0 MISS:          0 MSHR_MERGE:          0
cpu0->cpu0_ITLB PREFETCH REQUESTED:          0 ISSUED:          0 USEFUL:          0 USELESS:          0
cpu0->cpu0_ITLB AVERAGE MISS LATENCY: 3.94 cycles
cpu0_ITLB COHERENCE INVALIDATIONS:          0
cpu0_ITLB COHERENCE WRITE-HIT OTHER-SHARER EVENTS:          0
cpu0->cpu0_DTLB TOTAL        ACCESS:   60762575 HIT:   60604471 MISS:     158104 MSHR_MERGE:      34448
cpu0->cpu0_DTLB LOAD         ACCESS:   60762575 HIT:   60604471 MISS:     158104 MSHR_MERGE:      34448
cpu0->cpu0_DTLB RFO          ACCESS:          0 HIT:          0 MISS:          0 MSHR_MERGE:          0
cpu0->cpu0_DTLB PREFETCH     ACCESS:          0 HIT:          0 MISS:          0 MSHR_MERGE:          0
cpu0->cpu0_DTLB WRITE        ACCESS:          0 HIT:          0 MISS:          0 MSHR_MERGE:          0
cpu0->cpu0_DTLB TRANSLATION  ACCESS:          0 HIT:          0 MISS:          0 MSHR_MERGE:          0
cpu0->cpu0_DTLB PREFETCH REQUESTED:          0 ISSUED:          0 USEFUL:          0 USELESS:          0
cpu0->cpu0_DTLB AVERAGE MISS LATENCY: 4.001 cycles
cpu0_DTLB COHERENCE INVALIDATIONS:          0
cpu0_DTLB COHERENCE WRITE-HIT OTHER-SHARER EVENTS:          0
cpu0->LLC TOTAL        ACCESS:    4068182 HIT:    2380845 MISS:    1687337 MSHR_MERGE:          0
cpu0->LLC LOAD         ACCESS:     458970 HIT:     345890 MISS:     113080 MSHR_MERGE:          0
cpu0->LLC RFO          ACCESS:    1795871 HIT:    1007538 MISS:     788333 MSHR_MERGE:          0
cpu0->LLC PREFETCH     ACCESS:          0 HIT:          0 MISS:          0 MSHR_MERGE:          0
cpu0->LLC WRITE        ACCESS:    1813341 HIT:    1027417 MISS:     785924 MSHR_MERGE:          0
cpu0->LLC TRANSLATION  ACCESS:          0 HIT:          0 MISS:          0 MSHR_MERGE:          0
cpu0->LLC PREFETCH REQUESTED:          0 ISSUED:          0 USEFUL:          0 USELESS:          0
cpu0->LLC AVERAGE MISS LATENCY: 221.4 cycles
cpu1->LLC TOTAL        ACCESS:     969664 HIT:     277074 MISS:     692590 MSHR_MERGE:          1
cpu1->LLC LOAD         ACCESS:     775851 HIT:     226403 MISS:     549448 MSHR_MERGE:          1
cpu1->LLC RFO          ACCESS:          0 HIT:          0 MISS:          0 MSHR_MERGE:          0
cpu1->LLC PREFETCH     ACCESS:          0 HIT:          0 MISS:          0 MSHR_MERGE:          0
cpu1->LLC WRITE        ACCESS:          0 HIT:          0 MISS:          0 MSHR_MERGE:          0
cpu1->LLC TRANSLATION  ACCESS:     193813 HIT:      50671 MISS:     143142 MSHR_MERGE:          0
cpu1->LLC PREFETCH REQUESTED:          0 ISSUED:          0 USEFUL:          0 USELESS:          0
cpu1->LLC AVERAGE MISS LATENCY: 539.4 cycles
LLC COHERENCE INVALIDATIONS:      45906
LLC COHERENCE WRITE-HIT OTHER-SHARER EVENTS:      45906

DRAM Statistics

Channel 0 RQ ROW_BUFFER_HIT:      67447
  ROW_BUFFER_MISS:    1526449
  AVG DBUS CONGESTED CYCLE: 7.715
Channel 0 WQ ROW_BUFFER_HIT:     187383
  ROW_BUFFER_MISS:     600487
  FULL:      12491
Channel 0 REFRESHES ISSUED:      11902

VMEM ALIASED FILLS (cross-CPU shared-page hits): 12914
