[VMEM] WARNING: physical memory size is smaller than virtual memory size.

*** ChampSim Multicore Out-of-Order Simulator ***
Warmup Instructions: 200000000
Simulation Instructions: 50000000
Number of CPUs: 4
Page size: 4096

Off-chip DRAM Size: 16 GiB Channels: 1 Width: 64-bit Data Rate: 3205 MT/s
*** Reached end of trace: (2, "traces/canneal_big2.champsimtrace")
*** Reached end of trace: (3, "traces/canneal_big3.champsimtrace")
*** Reached end of trace: (0, "traces/canneal_big0.champsimtrace")
*** Reached end of trace: (2, "traces/canneal_big2.champsimtrace")
*** Reached end of trace: (3, "traces/canneal_big3.champsimtrace")
Heartbeat CPU 2 instructions: 10000001 cycles: 2504204 heartbeat IPC: 3.993 cumulative IPC: 3.993 (Simulation time: 00 hr 03 min 25 sec)
Heartbeat CPU 3 instructions: 10000001 cycles: 2504251 heartbeat IPC: 3.993 cumulative IPC: 3.993 (Simulation time: 00 hr 03 min 25 sec)
*** Reached end of trace: (2, "traces/canneal_big2.champsimtrace")
*** Reached end of trace: (3, "traces/canneal_big3.champsimtrace")
*** Reached end of trace: (0, "traces/canneal_big0.champsimtrace")
Heartbeat CPU 0 instructions: 10000003 cycles: 4037082 heartbeat IPC: 2.477 cumulative IPC: 2.477 (Simulation time: 00 hr 05 min 47 sec)
*** Reached end of trace: (1, "traces/canneal_big1.champsimtrace")
*** Reached end of trace: (2, "traces/canneal_big2.champsimtrace")
*** Reached end of trace: (3, "traces/canneal_big3.champsimtrace")
Heartbeat CPU 2 instructions: 20000001 cycles: 5004204 heartbeat IPC: 4 cumulative IPC: 3.997 (Simulation time: 00 hr 07 min 22 sec)
Heartbeat CPU 3 instructions: 20000001 cycles: 5004251 heartbeat IPC: 4 cumulative IPC: 3.997 (Simulation time: 00 hr 07 min 22 sec)
*** Reached end of trace: (0, "traces/canneal_big0.champsimtrace")
*** Reached end of trace: (2, "traces/canneal_big2.champsimtrace")
*** Reached end of trace: (3, "traces/canneal_big3.champsimtrace")
*** Reached end of trace: (2, "traces/canneal_big2.champsimtrace")
*** Reached end of trace: (3, "traces/canneal_big3.champsimtrace")
Heartbeat CPU 2 instructions: 30000001 cycles: 7504204 heartbeat IPC: 4 cumulative IPC: 3.998 (Simulation time: 00 hr 11 min 28 sec)
Heartbeat CPU 3 instructions: 30000001 cycles: 7504251 heartbeat IPC: 4 cumulative IPC: 3.998 (Simulation time: 00 hr 11 min 28 sec)
*** Reached end of trace: (1, "traces/canneal_big1.champsimtrace")
Heartbeat CPU 1 instructions: 10000002 cycles: 7814868 heartbeat IPC: 1.28 cumulative IPC: 1.28 (Simulation time: 00 hr 11 min 56 sec)
*** Reached end of trace: (0, "traces/canneal_big0.champsimtrace")
Heartbeat CPU 0 instructions: 20000006 cycles: 7886853 heartbeat IPC: 2.598 cumulative IPC: 2.536 (Simulation time: 00 hr 12 min 02 sec)
*** Reached end of trace: (2, "traces/canneal_big2.champsimtrace")
*** Reached end of trace: (3, "traces/canneal_big3.champsimtrace")
*** Reached end of trace: (0, "traces/canneal_big0.champsimtrace")
*** Reached end of trace: (2, "traces/canneal_big2.champsimtrace")
*** Reached end of trace: (3, "traces/canneal_big3.champsimtrace")
Heartbeat CPU 2 instructions: 40000001 cycles: 10004204 heartbeat IPC: 4 cumulative IPC: 3.998 (Simulation time: 00 hr 15 min 26 sec)
Heartbeat CPU 3 instructions: 40000001 cycles: 10004251 heartbeat IPC: 4 cumulative IPC: 3.998 (Simulation time: 00 hr 15 min 26 sec)
*** Reached end of trace: (1, "traces/canneal_big1.champsimtrace")
*** Reached end of trace: (2, "traces/canneal_big2.champsimtrace")
*** Reached end of trace: (3, "traces/canneal_big3.champsimtrace")
*** Reached end of trace: (0, "traces/canneal_big0.champsimtrace")
Heartbeat CPU 0 instructions: 30000009 cycles: 11736544 heartbeat IPC: 2.598 cumulative IPC: 2.556 (Simulation time: 00 hr 18 min 19 sec)
*** Reached end of trace: (2, "traces/canneal_big2.champsimtrace")
*** Reached end of trace: (3, "traces/canneal_big3.champsimtrace")
Heartbeat CPU 2 instructions: 50000001 cycles: 12504204 heartbeat IPC: 4 cumulative IPC: 3.999 (Simulation time: 00 hr 19 min 38 sec)
Heartbeat CPU 3 instructions: 50000001 cycles: 12504251 heartbeat IPC: 4 cumulative IPC: 3.999 (Simulation time: 00 hr 19 min 38 sec)
*** Reached end of trace: (1, "traces/canneal_big1.champsimtrace")
Heartbeat CPU 1 instructions: 20000004 cycles: 13495579 heartbeat IPC: 1.76 cumulative IPC: 1.482 (Simulation time: 00 hr 21 min 18 sec)
*** Reached end of trace: (0, "traces/canneal_big0.champsimtrace")
*** Reached end of trace: (2, "traces/canneal_big2.champsimtrace")
*** Reached end of trace: (3, "traces/canneal_big3.champsimtrace")
*** Reached end of trace: (2, "traces/canneal_big2.champsimtrace")
*** Reached end of trace: (3, "traces/canneal_big3.champsimtrace")
Heartbeat CPU 2 instructions: 60000001 cycles: 15004204 heartbeat IPC: 4 cumulative IPC: 3.999 (Simulation time: 00 hr 23 min 51 sec)
Heartbeat CPU 3 instructions: 60000001 cycles: 15004251 heartbeat IPC: 4 cumulative IPC: 3.999 (Simulation time: 00 hr 23 min 51 sec)
*** Reached end of trace: (0, "traces/canneal_big0.champsimtrace")
Heartbeat CPU 0 instructions: 40000012 cycles: 15586235 heartbeat IPC: 2.598 cumulative IPC: 2.566 (Simulation time: 00 hr 24 min 48 sec)
*** Reached end of trace: (2, "traces/canneal_big2.champsimtrace")
*** Reached end of trace: (3, "traces/canneal_big3.champsimtrace")
*** Reached end of trace: (1, "traces/canneal_big1.champsimtrace")
*** Reached end of trace: (2, "traces/canneal_big2.champsimtrace")
*** Reached end of trace: (3, "traces/canneal_big3.champsimtrace")
Heartbeat CPU 2 instructions: 70000001 cycles: 17504204 heartbeat IPC: 4 cumulative IPC: 3.999 (Simulation time: 00 hr 28 min 07 sec)
Heartbeat CPU 3 instructions: 70000001 cycles: 17504251 heartbeat IPC: 4 cumulative IPC: 3.999 (Simulation time: 00 hr 28 min 07 sec)
*** Reached end of trace: (0, "traces/canneal_big0.champsimtrace")
*** Reached end of trace: (2, "traces/canneal_big2.champsimtrace")
*** Reached end of trace: (3, "traces/canneal_big3.champsimtrace")
*** Reached end of trace: (1, "traces/canneal_big1.champsimtrace")
Heartbeat CPU 1 instructions: 30000004 cycles: 19176380 heartbeat IPC: 1.76 cumulative IPC: 1.564 (Simulation time: 00 hr 31 min 06 sec)
*** Reached end of trace: (0, "traces/canneal_big0.champsimtrace")
Heartbeat CPU 0 instructions: 50000015 cycles: 19435926 heartbeat IPC: 2.598 cumulative IPC: 2.573 (Simulation time: 00 hr 31 min 34 sec)
*** Reached end of trace: (2, "traces/canneal_big2.champsimtrace")
*** Reached end of trace: (3, "traces/canneal_big3.champsimtrace")
Heartbeat CPU 2 instructions: 80000001 cycles: 20004204 heartbeat IPC: 4 cumulative IPC: 3.999 (Simulation time: 00 hr 32 min 39 sec)
Heartbeat CPU 3 instructions: 80000001 cycles: 20004251 heartbeat IPC: 4 cumulative IPC: 3.999 (Simulation time: 00 hr 32 min 39 sec)
*** Reached end of trace: (2, "traces/canneal_big2.champsimtrace")
*** Reached end of trace: (3, "traces/canneal_big3.champsimtrace")
*** Reached end of trace: (0, "traces/canneal_big0.champsimtrace")
*** Reached end of trace: (1, "traces/canneal_big1.champsimtrace")
*** Reached end of trace: (2, "traces/canneal_big2.champsimtrace")
*** Reached end of trace: (3, "traces/canneal_big3.champsimtrace")
Heartbeat CPU 2 instructions: 90000001 cycles: 22504204 heartbeat IPC: 4 cumulative IPC: 3.999 (Simulation time: 00 hr 37 min 00 sec)
Heartbeat CPU 3 instructions: 90000001 cycles: 22504251 heartbeat IPC: 4 cumulative IPC: 3.999 (Simulation time: 00 hr 37 min 00 sec)
*** Reached end of trace: (0, "traces/canneal_big0.champsimtrace")
Heartbeat CPU 0 instructions: 60000018 cycles: 23285617 heartbeat IPC: 2.598 cumulative IPC: 2.577 (Simulation time: 00 hr 38 min 23 sec)
*** Reached end of trace: (2, "traces/canneal_big2.champsimtrace")
*** Reached end of trace: (3, "traces/canneal_big3.champsimtrace")
*** Reached end of trace: (1, "traces/canneal_big1.champsimtrace")
Heartbeat CPU 1 instructions: 40000006 cycles: 24857165 heartbeat IPC: 1.76 cumulative IPC: 1.609 (Simulation time: 00 hr 41 min 08 sec)
*** Reached end of trace: (2, "traces/canneal_big2.champsimtrace")
*** Reached end of trace: (3, "traces/canneal_big3.champsimtrace")
Heartbeat CPU 2 instructions: 100000001 cycles: 25004204 heartbeat IPC: 4 cumulative IPC: 3.999 (Simulation time: 00 hr 41 min 23 sec)
Heartbeat CPU 3 instructions: 100000001 cycles: 25004251 heartbeat IPC: 4 cumulative IPC: 3.999 (Simulation time: 00 hr 41 min 23 sec)
*** Reached end of trace: (0, "traces/canneal_big0.champsimtrace")
*** Reached end of trace: (2, "traces/canneal_big2.champsimtrace")
*** Reached end of trace: (3, "traces/canneal_big3.champsimtrace")
*** Reached end of trace: (0, "traces/canneal_big0.champsimtrace")
Heartbeat CPU 0 instructions: 70000021 cycles: 27135308 heartbeat IPC: 2.598 cumulative IPC: 2.58 (Simulation time: 00 hr 45 min 07 sec)
*** Reached end of trace: (2, "traces/canneal_big2.champsimtrace")
*** Reached end of trace: (3, "traces/canneal_big3.champsimtrace")
Heartbeat CPU 2 instructions: 110000001 cycles: 27504204 heartbeat IPC: 4 cumulative IPC: 3.999 (Simulation time: 00 hr 45 min 51 sec)
Heartbeat CPU 3 instructions: 110000001 cycles: 27504251 heartbeat IPC: 4 cumulative IPC: 3.999 (Simulation time: 00 hr 45 min 51 sec)
*** Reached end of trace: (1, "traces/canneal_big1.champsimtrace")
*** Reached end of trace: (2, "traces/canneal_big2.champsimtrace")
*** Reached end of trace: (3, "traces/canneal_big3.champsimtrace")
*** Reached end of trace: (0, "traces/canneal_big0.champsimtrace")
*** Reached end of trace: (2, "traces/canneal_big2.champsimtrace")
*** Reached end of trace: (3, "traces/canneal_big3.champsimtrace")
Heartbeat CPU 2 instructions: 120000001 cycles: 30004204 heartbeat IPC: 4 cumulative IPC: 3.999 (Simulation time: 00 hr 50 min 21 sec)
Heartbeat CPU 3 instructions: 120000001 cycles: 30004251 heartbeat IPC: 4 cumulative IPC: 3.999 (Simulation time: 00 hr 50 min 21 sec)
*** Reached end of trace: (1, "traces/canneal_big1.champsimtrace")
Heartbeat CPU 1 instructions: 50000008 cycles: 30538076 heartbeat IPC: 1.76 cumulative IPC: 1.637 (Simulation time: 00 hr 51 min 17 sec)
*** Reached end of trace: (0, "traces/canneal_big0.champsimtrace")
Heartbeat CPU 0 instructions: 80000024 cycles: 30984999 heartbeat IPC: 2.598 cumulative IPC: 2.582 (Simulation time: 00 hr 52 min 02 sec)
*** Reached end of trace: (2, "traces/canneal_big2.champsimtrace")
*** Reached end of trace: (3, "traces/canneal_big3.champsimtrace")
*** Reached end of trace: (2, "traces/canneal_big2.champsimtrace")
*** Reached end of trace: (3, "traces/canneal_big3.champsimtrace")
Heartbeat CPU 2 instructions: 130000001 cycles: 32504204 heartbeat IPC: 4 cumulative IPC: 3.999 (Simulation time: 00 hr 54 min 48 sec)
Heartbeat CPU 3 instructions: 130000001 cycles: 32504251 heartbeat IPC: 4 cumulative IPC: 3.999 (Simulation time: 00 hr 54 min 48 sec)
*** Reached end of trace: (0, "traces/canneal_big0.champsimtrace")
*** Reached end of trace: (1, "traces/canneal_big1.champsimtrace")
*** Reached end of trace: (2, "traces/canneal_big2.champsimtrace")
*** Reached end of trace: (3, "traces/canneal_big3.champsimtrace")
*** Reached end of trace: (0, "traces/canneal_big0.champsimtrace")
Heartbeat CPU 0 instructions: 90000027 cycles: 34834690 heartbeat IPC: 2.598 cumulative IPC: 2.584 (Simulation time: 00 hr 59 min 01 sec)
*** Reached end of trace: (2, "traces/canneal_big2.champsimtrace")
*** Reached end of trace: (3, "traces/canneal_big3.champsimtrace")
Heartbeat CPU 2 instructions: 140000001 cycles: 35004204 heartbeat IPC: 4 cumulative IPC: 4 (Simulation time: 00 hr 59 min 22 sec)
Heartbeat CPU 3 instructions: 140000001 cycles: 35004251 heartbeat IPC: 4 cumulative IPC: 4 (Simulation time: 00 hr 59 min 22 sec)
*** Reached end of trace: (1, "traces/canneal_big1.champsimtrace")
Heartbeat CPU 1 instructions: 60000009 cycles: 36219007 heartbeat IPC: 1.76 cumulative IPC: 1.657 (Simulation time: 01 hr 01 min 35 sec)
*** Reached end of trace: (2, "traces/canneal_big2.champsimtrace")
*** Reached end of trace: (3, "traces/canneal_big3.champsimtrace")
*** Reached end of trace: (0, "traces/canneal_big0.champsimtrace")
*** Reached end of trace: (2, "traces/canneal_big2.champsimtrace")
*** Reached end of trace: (3, "traces/canneal_big3.champsimtrace")
Heartbeat CPU 2 instructions: 150000001 cycles: 37504204 heartbeat IPC: 4 cumulative IPC: 4 (Simulation time: 01 hr 03 min 59 sec)
Heartbeat CPU 3 instructions: 150000001 cycles: 37504251 heartbeat IPC: 4 cumulative IPC: 4 (Simulation time: 01 hr 03 min 59 sec)
*** Reached end of trace: (0, "traces/canneal_big0.champsimtrace")
Heartbeat CPU 0 instructions: 100000030 cycles: 38684381 heartbeat IPC: 2.598 cumulative IPC: 2.585 (Simulation time: 01 hr 06 min 03 sec)
*** Reached end of trace: (2, "traces/canneal_big2.champsimtrace")
*** Reached end of trace: (3, "traces/canneal_big3.champsimtrace")
*** Reached end of trace: (1, "traces/canneal_big1.champsimtrace")
*** Reached end of trace: (2, "traces/canneal_big2.champsimtrace")
*** Reached end of trace: (3, "traces/canneal_big3.champsimtrace")
Heartbeat CPU 2 instructions: 160000001 cycles: 40004204 heartbeat IPC: 4 cumulative IPC: 4 (Simulation time: 01 hr 08 min 22 sec)
Heartbeat CPU 3 instructions: 160000001 cycles: 40004251 heartbeat IPC: 4 cumulative IPC: 4 (Simulation time: 01 hr 08 min 22 sec)
*** Reached end of trace: (0, "traces/canneal_big0.champsimtrace")
*** Reached end of trace: (2, "traces/canneal_big2.champsimtrace")
*** Reached end of trace: (3, "traces/canneal_big3.champsimtrace")
*** Reached end of trace: (1, "traces/canneal_big1.champsimtrace")
Heartbeat CPU 1 instructions: 70000011 cycles: 41900009 heartbeat IPC: 1.76 cumulative IPC: 1.671 (Simulation time: 01 hr 11 min 46 sec)
*** Reached end of trace: (2, "traces/canneal_big2.champsimtrace")
*** Reached end of trace: (3, "traces/canneal_big3.champsimtrace")
Heartbeat CPU 2 instructions: 170000001 cycles: 42504204 heartbeat IPC: 4 cumulative IPC: 4 (Simulation time: 01 hr 12 min 44 sec)
Heartbeat CPU 3 instructions: 170000001 cycles: 42504251 heartbeat IPC: 4 cumulative IPC: 4 (Simulation time: 01 hr 12 min 44 sec)
*** Reached end of trace: (0, "traces/canneal_big0.champsimtrace")
Heartbeat CPU 0 instructions: 110000033 cycles: 42534072 heartbeat IPC: 2.598 cumulative IPC: 2.586 (Simulation time: 01 hr 12 min 47 sec)
*** Reached end of trace: (2, "traces/canneal_big2.champsimtrace")
*** Reached end of trace: (3, "traces/canneal_big3.champsimtrace")
*** Reached end of trace: (0, "traces/canneal_big0.champsimtrace")
*** Reached end of trace: (1, "traces/canneal_big1.champsimtrace")
*** Reached end of trace: (2, "traces/canneal_big2.champsimtrace")
*** Reached end of trace: (3, "traces/canneal_big3.champsimtrace")
Heartbeat CPU 2 instructions: 180000001 cycles: 45004204 heartbeat IPC: 4 cumulative IPC: 4 (Simulation time: 01 hr 17 min 10 sec)
Heartbeat CPU 3 instructions: 180000001 cycles: 45004251 heartbeat IPC: 4 cumulative IPC: 4 (Simulation time: 01 hr 17 min 10 sec)
*** Reached end of trace: (2, "traces/canneal_big2.champsimtrace")
*** Reached end of trace: (3, "traces/canneal_big3.champsimtrace")
*** Reached end of trace: (0, "traces/canneal_big0.champsimtrace")
Heartbeat CPU 0 instructions: 120000036 cycles: 46383763 heartbeat IPC: 2.598 cumulative IPC: 2.587 (Simulation time: 01 hr 19 min 39 sec)
*** Reached end of trace: (2, "traces/canneal_big2.champsimtrace")
*** Reached end of trace: (3, "traces/canneal_big3.champsimtrace")
Heartbeat CPU 2 instructions: 190000001 cycles: 47504204 heartbeat IPC: 4 cumulative IPC: 4 (Simulation time: 01 hr 21 min 37 sec)
Heartbeat CPU 3 instructions: 190000001 cycles: 47504251 heartbeat IPC: 4 cumulative IPC: 4 (Simulation time: 01 hr 21 min 37 sec)
*** Reached end of trace: (1, "traces/canneal_big1.champsimtrace")
Heartbeat CPU 1 instructions: 80000011 cycles: 47580945 heartbeat IPC: 1.76 cumulative IPC: 1.681 (Simulation time: 01 hr 21 min 45 sec)
*** Reached end of trace: (0, "traces/canneal_big0.champsimtrace")
*** Reached end of trace: (2, "traces/canneal_big2.champsimtrace")
*** Reached end of trace: (3, "traces/canneal_big3.champsimtrace")
*** Reached end of trace: (2, "traces/canneal_big2.champsimtrace")
*** Reached end of trace: (3, "traces/canneal_big3.champsimtrace")
Heartbeat CPU 2 instructions: 200000001 cycles: 50004204 heartbeat IPC: 4 cumulative IPC: 4 (Simulation time: 01 hr 26 min 07 sec)
Warmup finished CPU 2 instructions: 200000001 cycles: 50004204 cumulative IPC: 4 (Simulation time: 01 hr 26 min 07 sec)
Heartbeat CPU 3 instructions: 200000001 cycles: 50004251 heartbeat IPC: 4 cumulative IPC: 4 (Simulation time: 01 hr 26 min 07 sec)
Warmup finished CPU 3 instructions: 200000001 cycles: 50004251 cumulative IPC: 4 (Simulation time: 01 hr 26 min 07 sec)
*** Reached end of trace: (0, "traces/canneal_big0.champsimtrace")
Heartbeat CPU 0 instructions: 130000039 cycles: 50233454 heartbeat IPC: 2.598 cumulative IPC: 2.588 (Simulation time: 01 hr 26 min 31 sec)
*** Reached end of trace: (1, "traces/canneal_big1.champsimtrace")
*** Reached end of trace: (2, "traces/canneal_big2.champsimtrace")
*** Reached end of trace: (3, "traces/canneal_big3.champsimtrace")
*** Reached end of trace: (0, "traces/canneal_big0.champsimtrace")
*** Reached end of trace: (2, "traces/canneal_big2.champsimtrace")
*** Reached end of trace: (3, "traces/canneal_big3.champsimtrace")
Heartbeat CPU 2 instructions: 210000001 cycles: 52504204 heartbeat IPC: 4 cumulative IPC: 4 (Simulation time: 01 hr 30 min 37 sec)
Heartbeat CPU 3 instructions: 210000001 cycles: 52504251 heartbeat IPC: 4 cumulative IPC: 4 (Simulation time: 01 hr 30 min 37 sec)
*** Reached end of trace: (1, "traces/canneal_big1.champsimtrace")
Heartbeat CPU 1 instructions: 90000013 cycles: 53262002 heartbeat IPC: 1.76 cumulative IPC: 1.69 (Simulation time: 01 hr 31 min 59 sec)
*** Reached end of trace: (2, "traces/canneal_big2.champsimtrace")
*** Reached end of trace: (3, "traces/canneal_big3.champsimtrace")
*** Reached end of trace: (0, "traces/canneal_big0.champsimtrace")
Heartbeat CPU 0 instructions: 140000042 cycles: 54083145 heartbeat IPC: 2.598 cumulative IPC: 2.589 (Simulation time: 01 hr 33 min 23 sec)
*** Reached end of trace: (2, "traces/canneal_big2.champsimtrace")
*** Reached end of trace: (3, "traces/canneal_big3.champsimtrace")
Heartbeat CPU 2 instructions: 220000001 cycles: 55004204 heartbeat IPC: 4 cumulative IPC: 4 (Simulation time: 01 hr 34 min 56 sec)
Heartbeat CPU 3 instructions: 220000001 cycles: 55004251 heartbeat IPC: 4 cumulative IPC: 4 (Simulation time: 01 hr 34 min 56 sec)
*** Reached end of trace: (0, "traces/canneal_big0.champsimtrace")
*** Reached end of trace: (1, "traces/canneal_big1.champsimtrace")
*** Reached end of trace: (2, "traces/canneal_big2.champsimtrace")
*** Reached end of trace: (3, "traces/canneal_big3.champsimtrace")
*** Reached end of trace: (2, "traces/canneal_big2.champsimtrace")
*** Reached end of trace: (3, "traces/canneal_big3.champsimtrace")
Heartbeat CPU 2 instructions: 230000001 cycles: 57504204 heartbeat IPC: 4 cumulative IPC: 4 (Simulation time: 01 hr 39 min 21 sec)
Heartbeat CPU 3 instructions: 230000001 cycles: 57504251 heartbeat IPC: 4 cumulative IPC: 4 (Simulation time: 01 hr 39 min 21 sec)
*** Reached end of trace: (0, "traces/canneal_big0.champsimtrace")
Heartbeat CPU 0 instructions: 150000045 cycles: 57932836 heartbeat IPC: 2.598 cumulative IPC: 2.589 (Simulation time: 01 hr 40 min 08 sec)
*** Reached end of trace: (2, "traces/canneal_big2.champsimtrace")
*** Reached end of trace: (3, "traces/canneal_big3.champsimtrace")
*** Reached end of trace: (1, "traces/canneal_big1.champsimtrace")
Heartbeat CPU 1 instructions: 100000015 cycles: 58942838 heartbeat IPC: 1.76 cumulative IPC: 1.697 (Simulation time: 01 hr 41 min 55 sec)
*** Reached end of trace: (0, "traces/canneal_big0.champsimtrace")
*** Reached end of trace: (2, "traces/canneal_big2.champsimtrace")
*** Reached end of trace: (3, "traces/canneal_big3.champsimtrace")
Heartbeat CPU 2 instructions: 240000001 cycles: 60004204 heartbeat IPC: 4 cumulative IPC: 4 (Simulation time: 01 hr 43 min 47 sec)
Heartbeat CPU 3 instructions: 240000001 cycles: 60004251 heartbeat IPC: 4 cumulative IPC: 4 (Simulation time: 01 hr 43 min 47 sec)
*** Reached end of trace: (2, "traces/canneal_big2.champsimtrace")
*** Reached end of trace: (3, "traces/canneal_big3.champsimtrace")
*** Reached end of trace: (0, "traces/canneal_big0.champsimtrace")
Heartbeat CPU 0 instructions: 160000048 cycles: 61782527 heartbeat IPC: 2.598 cumulative IPC: 2.59 (Simulation time: 01 hr 46 min 41 sec)
*** Reached end of trace: (1, "traces/canneal_big1.champsimtrace")
*** Reached end of trace: (2, "traces/canneal_big2.champsimtrace")
*** Reached end of trace: (3, "traces/canneal_big3.champsimtrace")
Heartbeat CPU 2 instructions: 250000001 cycles: 62504204 heartbeat IPC: 4 cumulative IPC: 4 (Simulation time: 01 hr 48 min 01 sec)
Heartbeat CPU 3 instructions: 250000001 cycles: 62504251 heartbeat IPC: 4 cumulative IPC: 4 (Simulation time: 01 hr 48 min 01 sec)
*** Reached end of trace: (0, "traces/canneal_big0.champsimtrace")
*** Reached end of trace: (2, "traces/canneal_big2.champsimtrace")
*** Reached end of trace: (3, "traces/canneal_big3.champsimtrace")
*** Reached end of trace: (1, "traces/canneal_big1.champsimtrace")
Heartbeat CPU 1 instructions: 110000017 cycles: 64623724 heartbeat IPC: 1.76 cumulative IPC: 1.702 (Simulation time: 01 hr 51 min 47 sec)
*** Reached end of trace: (2, "traces/canneal_big2.champsimtrace")
*** Reached end of trace: (3, "traces/canneal_big3.champsimtrace")
Heartbeat CPU 2 instructions: 260000001 cycles: 65004204 heartbeat IPC: 4 cumulative IPC: 4 (Simulation time: 01 hr 52 min 24 sec)
Heartbeat CPU 3 instructions: 260000001 cycles: 65004251 heartbeat IPC: 4 cumulative IPC: 4 (Simulation time: 01 hr 52 min 24 sec)
*** Reached end of trace: (0, "traces/canneal_big0.champsimtrace")
Heartbeat CPU 0 instructions: 170000051 cycles: 65632188 heartbeat IPC: 2.598 cumulative IPC: 2.59 (Simulation time: 01 hr 53 min 30 sec)
*** Reached end of trace: (2, "traces/canneal_big2.champsimtrace")
*** Reached end of trace: (3, "traces/canneal_big3.champsimtrace")
*** Reached end of trace: (1, "traces/canneal_big1.champsimtrace")
*** Reached end of trace: (2, "traces/canneal_big2.champsimtrace")
*** Reached end of trace: (3, "traces/canneal_big3.champsimtrace")
Heartbeat CPU 2 instructions: 270000001 cycles: 67504204 heartbeat IPC: 4 cumulative IPC: 4 (Simulation time: 01 hr 56 min 52 sec)
Heartbeat CPU 3 instructions: 270000001 cycles: 67504251 heartbeat IPC: 4 cumulative IPC: 4 (Simulation time: 01 hr 56 min 52 sec)
*** Reached end of trace: (0, "traces/canneal_big0.champsimtrace")
*** Reached end of trace: (2, "traces/canneal_big2.champsimtrace")
*** Reached end of trace: (3, "traces/canneal_big3.champsimtrace")
*** Reached end of trace: (0, "traces/canneal_big0.champsimtrace")
Heartbeat CPU 0 instructions: 180000054 cycles: 69481879 heartbeat IPC: 2.598 cumulative IPC: 2.591 (Simulation time: 02 hr 00 min 25 sec)
*** Reached end of trace: (2, "traces/canneal_big2.champsimtrace")
*** Reached end of trace: (3, "traces/canneal_big3.champsimtrace")
Heartbeat CPU 2 instructions: 280000001 cycles: 70004204 heartbeat IPC: 4 cumulative IPC: 4 (Simulation time: 02 hr 01 min 27 sec)
Heartbeat CPU 3 instructions: 280000001 cycles: 70004251 heartbeat IPC: 4 cumulative IPC: 4 (Simulation time: 02 hr 01 min 27 sec)
*** Reached end of trace: (1, "traces/canneal_big1.champsimtrace")
Heartbeat CPU 1 instructions: 120000019 cycles: 70304605 heartbeat IPC: 1.76 cumulative IPC: 1.707 (Simulation time: 02 hr 01 min 55 sec)
*** Reached end of trace: (2, "traces/canneal_big2.champsimtrace")
*** Reached end of trace: (3, "traces/canneal_big3.champsimtrace")
*** Reached end of trace: (0, "traces/canneal_big0.champsimtrace")
*** Reached end of trace: (2, "traces/canneal_big2.champsimtrace")
*** Reached end of trace: (3, "traces/canneal_big3.champsimtrace")
Heartbeat CPU 2 instructions: 290000001 cycles: 72504204 heartbeat IPC: 4 cumulative IPC: 4 (Simulation time: 02 hr 05 min 40 sec)
Heartbeat CPU 3 instructions: 290000001 cycles: 72504251 heartbeat IPC: 4 cumulative IPC: 4 (Simulation time: 02 hr 05 min 40 sec)
*** Reached end of trace: (1, "traces/canneal_big1.champsimtrace")
*** Reached end of trace: (0, "traces/canneal_big0.champsimtrace")
Heartbeat CPU 0 instructions: 190000057 cycles: 73331570 heartbeat IPC: 2.598 cumulative IPC: 2.591 (Simulation time: 02 hr 07 min 05 sec)
*** Reached end of trace: (2, "traces/canneal_big2.champsimtrace")
*** Reached end of trace: (3, "traces/canneal_big3.champsimtrace")
*** Reached end of trace: (2, "traces/canneal_big2.champsimtrace")
*** Reached end of trace: (3, "traces/canneal_big3.champsimtrace")
Heartbeat CPU 2 instructions: 300000001 cycles: 75004204 heartbeat IPC: 4 cumulative IPC: 4 (Simulation time: 02 hr 09 min 58 sec)
Heartbeat CPU 3 instructions: 300000001 cycles: 75004251 heartbeat IPC: 4 cumulative IPC: 4 (Simulation time: 02 hr 09 min 58 sec)
*** Reached end of trace: (0, "traces/canneal_big0.champsimtrace")
*** Reached end of trace: (1, "traces/canneal_big1.champsimtrace")
Heartbeat CPU 1 instructions: 130000019 cycles: 75985291 heartbeat IPC: 1.76 cumulative IPC: 1.711 (Simulation time: 02 hr 11 min 41 sec)
*** Reached end of trace: (2, "traces/canneal_big2.champsimtrace")
*** Reached end of trace: (3, "traces/canneal_big3.champsimtrace")
*** Reached end of trace: (0, "traces/canneal_big0.champsimtrace")
Warmup finished CPU 0 instructions: 200000000 cycles: 77181249 cumulative IPC: 2.591 (Simulation time: 02 hr 13 min 42 sec)
Heartbeat CPU 0 instructions: 200000060 cycles: 77181261 heartbeat IPC: 2.598 cumulative IPC: 2.591 (Simulation time: 02 hr 13 min 42 sec)
*** Reached end of trace: (2, "traces/canneal_big2.champsimtrace")
*** Reached end of trace: (3, "traces/canneal_big3.champsimtrace")
Heartbeat CPU 2 instructions: 310000001 cycles: 77504204 heartbeat IPC: 4 cumulative IPC: 4 (Simulation time: 02 hr 14 min 19 sec)
Heartbeat CPU 3 instructions: 310000001 cycles: 77504251 heartbeat IPC: 4 cumulative IPC: 4 (Simulation time: 02 hr 14 min 19 sec)
*** Reached end of trace: (2, "traces/canneal_big2.champsimtrace")
*** Reached end of trace: (3, "traces/canneal_big3.champsimtrace")
*** Reached end of trace: (1, "traces/canneal_big1.champsimtrace")
*** Reached end of trace: (0, "traces/canneal_big0.champsimtrace")
*** Reached end of trace: (2, "traces/canneal_big2.champsimtrace")
*** Reached end of trace: (3, "traces/canneal_big3.champsimtrace")
Heartbeat CPU 2 instructions: 320000001 cycles: 80004204 heartbeat IPC: 4 cumulative IPC: 4 (Simulation time: 02 hr 18 min 32 sec)
Heartbeat CPU 3 instructions: 320000001 cycles: 80004251 heartbeat IPC: 4 cumulative IPC: 4 (Simulation time: 02 hr 18 min 32 sec)
*** Reached end of trace: (0, "traces/canneal_big0.champsimtrace")
Heartbeat CPU 0 instructions: 210000063 cycles: 81030952 heartbeat IPC: 2.598 cumulative IPC: 2.592 (Simulation time: 02 hr 20 min 12 sec)
*** Reached end of trace: (2, "traces/canneal_big2.champsimtrace")
*** Reached end of trace: (3, "traces/canneal_big3.champsimtrace")
*** Reached end of trace: (1, "traces/canneal_big1.champsimtrace")
Heartbeat CPU 1 instructions: 140000021 cycles: 81666183 heartbeat IPC: 1.76 cumulative IPC: 1.714 (Simulation time: 02 hr 21 min 17 sec)
*** Reached end of trace: (2, "traces/canneal_big2.champsimtrace")
*** Reached end of trace: (3, "traces/canneal_big3.champsimtrace")
Heartbeat CPU 2 instructions: 330000001 cycles: 82504204 heartbeat IPC: 4 cumulative IPC: 4 (Simulation time: 02 hr 22 min 41 sec)
Heartbeat CPU 3 instructions: 330000001 cycles: 82504251 heartbeat IPC: 4 cumulative IPC: 4 (Simulation time: 02 hr 22 min 41 sec)
*** Reached end of trace: (0, "traces/canneal_big0.champsimtrace")
*** Reached end of trace: (2, "traces/canneal_big2.champsimtrace")
*** Reached end of trace: (3, "traces/canneal_big3.champsimtrace")
*** Reached end of trace: (1, "traces/canneal_big1.champsimtrace")
*** Reached end of trace: (0, "traces/canneal_big0.champsimtrace")
Heartbeat CPU 0 instructions: 220000066 cycles: 84880643 heartbeat IPC: 2.598 cumulative IPC: 2.592 (Simulation time: 02 hr 26 min 47 sec)
*** Reached end of trace: (2, "traces/canneal_big2.champsimtrace")
*** Reached end of trace: (3, "traces/canneal_big3.champsimtrace")
Heartbeat CPU 2 instructions: 340000001 cycles: 85004204 heartbeat IPC: 4 cumulative IPC: 4 (Simulation time: 02 hr 26 min 58 sec)
Heartbeat CPU 3 instructions: 340000001 cycles: 85004251 heartbeat IPC: 4 cumulative IPC: 4 (Simulation time: 02 hr 26 min 58 sec)
*** Reached end of trace: (2, "traces/canneal_big2.champsimtrace")
*** Reached end of trace: (3, "traces/canneal_big3.champsimtrace")
*** Reached end of trace: (0, "traces/canneal_big0.champsimtrace")
*** Reached end of trace: (1, "traces/canneal_big1.champsimtrace")
Heartbeat CPU 1 instructions: 150000023 cycles: 87347089 heartbeat IPC: 1.76 cumulative IPC: 1.717 (Simulation time: 02 hr 30 min 51 sec)
*** Reached end of trace: (2, "traces/canneal_big2.champsimtrace")
*** Reached end of trace: (3, "traces/canneal_big3.champsimtrace")
Heartbeat CPU 2 instructions: 350000001 cycles: 87504204 heartbeat IPC: 4 cumulative IPC: 4 (Simulation time: 02 hr 31 min 08 sec)
Heartbeat CPU 3 instructions: 350000001 cycles: 87504251 heartbeat IPC: 4 cumulative IPC: 4 (Simulation time: 02 hr 31 min 08 sec)
*** Reached end of trace: (0, "traces/canneal_big0.champsimtrace")
Heartbeat CPU 0 instructions: 230000069 cycles: 88730334 heartbeat IPC: 2.598 cumulative IPC: 2.592 (Simulation time: 02 hr 33 min 09 sec)
*** Reached end of trace: (2, "traces/canneal_big2.champsimtrace")
*** Reached end of trace: (3, "traces/canneal_big3.champsimtrace")
*** Reached end of trace: (2, "traces/canneal_big2.champsimtrace")
*** Reached end of trace: (3, "traces/canneal_big3.champsimtrace")
Heartbeat CPU 2 instructions: 360000001 cycles: 90004204 heartbeat IPC: 4 cumulative IPC: 4 (Simulation time: 02 hr 35 min 14 sec)
Heartbeat CPU 3 instructions: 360000001 cycles: 90004251 heartbeat IPC: 4 cumulative IPC: 4 (Simulation time: 02 hr 35 min 14 sec)
*** Reached end of trace: (1, "traces/canneal_big1.champsimtrace")
*** Reached end of trace: (0, "traces/canneal_big0.champsimtrace")
*** Reached end of trace: (2, "traces/canneal_big2.champsimtrace")
*** Reached end of trace: (3, "traces/canneal_big3.champsimtrace")
*** Reached end of trace: (2, "traces/canneal_big2.champsimtrace")
*** Reached end of trace: (3, "traces/canneal_big3.champsimtrace")
Heartbeat CPU 2 instructions: 370000001 cycles: 92504204 heartbeat IPC: 4 cumulative IPC: 4 (Simulation time: 02 hr 39 min 15 sec)
Heartbeat CPU 3 instructions: 370000001 cycles: 92504251 heartbeat IPC: 4 cumulative IPC: 4 (Simulation time: 02 hr 39 min 15 sec)
*** Reached end of trace: (0, "traces/canneal_big0.champsimtrace")
Heartbeat CPU 0 instructions: 240000072 cycles: 92580025 heartbeat IPC: 2.598 cumulative IPC: 2.592 (Simulation time: 02 hr 39 min 23 sec)
*** Reached end of trace: (1, "traces/canneal_big1.champsimtrace")
Heartbeat CPU 1 instructions: 160000025 cycles: 93027955 heartbeat IPC: 1.76 cumulative IPC: 1.72 (Simulation time: 02 hr 40 min 14 sec)
*** Reached end of trace: (2, "traces/canneal_big2.champsimtrace")
*** Reached end of trace: (3, "traces/canneal_big3.champsimtrace")
*** Reached end of trace: (0, "traces/canneal_big0.champsimtrace")
*** Reached end of trace: (2, "traces/canneal_big2.champsimtrace")
*** Reached end of trace: (3, "traces/canneal_big3.champsimtrace")
Heartbeat CPU 2 instructions: 380000001 cycles: 95004204 heartbeat IPC: 4 cumulative IPC: 4 (Simulation time: 02 hr 43 min 45 sec)
Heartbeat CPU 3 instructions: 380000001 cycles: 95004251 heartbeat IPC: 4 cumulative IPC: 4 (Simulation time: 02 hr 43 min 45 sec)
*** Reached end of trace: (1, "traces/canneal_big1.champsimtrace")
*** Reached end of trace: (2, "traces/canneal_big2.champsimtrace")
*** Reached end of trace: (3, "traces/canneal_big3.champsimtrace")
*** Reached end of trace: (0, "traces/canneal_big0.champsimtrace")
Heartbeat CPU 0 instructions: 250000075 cycles: 96429716 heartbeat IPC: 2.598 cumulative IPC: 2.593 (Simulation time: 02 hr 46 min 08 sec)
*** Reached end of trace: (2, "traces/canneal_big2.champsimtrace")
*** Reached end of trace: (3, "traces/canneal_big3.champsimtrace")
Heartbeat CPU 2 instructions: 390000001 cycles: 97504204 heartbeat IPC: 4 cumulative IPC: 4 (Simulation time: 02 hr 47 min 59 sec)
Heartbeat CPU 3 instructions: 390000001 cycles: 97504251 heartbeat IPC: 4 cumulative IPC: 4 (Simulation time: 02 hr 47 min 59 sec)
*** Reached end of trace: (0, "traces/canneal_big0.champsimtrace")
*** Reached end of trace: (1, "traces/canneal_big1.champsimtrace")
Heartbeat CPU 1 instructions: 170000027 cycles: 98708911 heartbeat IPC: 1.76 cumulative IPC: 1.722 (Simulation time: 02 hr 50 min 05 sec)
*** Reached end of trace: (2, "traces/canneal_big2.champsimtrace")
*** Reached end of trace: (3, "traces/canneal_big3.champsimtrace")
*** Reached end of trace: (2, "traces/canneal_big2.champsimtrace")
*** Reached end of trace: (3, "traces/canneal_big3.champsimtrace")
Heartbeat CPU 2 instructions: 400000001 cycles: 100004204 heartbeat IPC: 4 cumulative IPC: 4 (Simulation time: 02 hr 52 min 10 sec)
Heartbeat CPU 3 instructions: 400000001 cycles: 100004251 heartbeat IPC: 4 cumulative IPC: 4 (Simulation time: 02 hr 52 min 10 sec)
*** Reached end of trace: (0, "traces/canneal_big0.champsimtrace")
Heartbeat CPU 0 instructions: 260000078 cycles: 100279407 heartbeat IPC: 2.598 cumulative IPC: 2.593 (Simulation time: 02 hr 52 min 37 sec)
*** Reached end of trace: (2, "traces/canneal_big2.champsimtrace")
*** Reached end of trace: (3, "traces/canneal_big3.champsimtrace")
*** Reached end of trace: (1, "traces/canneal_big1.champsimtrace")
*** Reached end of trace: (0, "traces/canneal_big0.champsimtrace")
*** Reached end of trace: (2, "traces/canneal_big2.champsimtrace")
*** Reached end of trace: (3, "traces/canneal_big3.champsimtrace")
Heartbeat CPU 2 instructions: 410000001 cycles: 102504204 heartbeat IPC: 4 cumulative IPC: 4 (Simulation time: 02 hr 56 min 32 sec)
Heartbeat CPU 3 instructions: 410000001 cycles: 102504251 heartbeat IPC: 4 cumulative IPC: 4 (Simulation time: 02 hr 56 min 32 sec)
*** Reached end of trace: (2, "traces/canneal_big2.champsimtrace")
*** Reached end of trace: (3, "traces/canneal_big3.champsimtrace")
*** Reached end of trace: (0, "traces/canneal_big0.champsimtrace")
Heartbeat CPU 0 instructions: 270000081 cycles: 104129098 heartbeat IPC: 2.598 cumulative IPC: 2.593 (Simulation time: 02 hr 59 min 22 sec)
*** Reached end of trace: (1, "traces/canneal_big1.champsimtrace")
Heartbeat CPU 1 instructions: 180000029 cycles: 104389892 heartbeat IPC: 1.76 cumulative IPC: 1.724 (Simulation time: 02 hr 59 min 52 sec)
*** Reached end of trace: (2, "traces/canneal_big2.champsimtrace")
*** Reached end of trace: (3, "traces/canneal_big3.champsimtrace")
Heartbeat CPU 2 instructions: 420000001 cycles: 105004204 heartbeat IPC: 4 cumulative IPC: 4 (Simulation time: 03 hr 00 min 51 sec)
Heartbeat CPU 3 instructions: 420000001 cycles: 105004251 heartbeat IPC: 4 cumulative IPC: 4 (Simulation time: 03 hr 00 min 51 sec)
*** Reached end of trace: (0, "traces/canneal_big0.champsimtrace")
*** Reached end of trace: (2, "traces/canneal_big2.champsimtrace")
*** Reached end of trace: (3, "traces/canneal_big3.champsimtrace")
*** Reached end of trace: (1, "traces/canneal_big1.champsimtrace")
*** Reached end of trace: (2, "traces/canneal_big2.champsimtrace")
*** Reached end of trace: (3, "traces/canneal_big3.champsimtrace")
Heartbeat CPU 2 instructions: 430000001 cycles: 107504204 heartbeat IPC: 4 cumulative IPC: 4 (Simulation time: 03 hr 05 min 08 sec)
Heartbeat CPU 3 instructions: 430000001 cycles: 107504251 heartbeat IPC: 4 cumulative IPC: 4 (Simulation time: 03 hr 05 min 08 sec)
*** Reached end of trace: (0, "traces/canneal_big0.champsimtrace")
Heartbeat CPU 0 instructions: 280000084 cycles: 107978789 heartbeat IPC: 2.598 cumulative IPC: 2.593 (Simulation time: 03 hr 05 min 59 sec)
*** Reached end of trace: (2, "traces/canneal_big2.champsimtrace")
*** Reached end of trace: (3, "traces/canneal_big3.champsimtrace")
*** Reached end of trace: (0, "traces/canneal_big0.champsimtrace")
*** Reached end of trace: (2, "traces/canneal_big2.champsimtrace")
*** Reached end of trace: (3, "traces/canneal_big3.champsimtrace")
Heartbeat CPU 2 instructions: 440000001 cycles: 110004204 heartbeat IPC: 4 cumulative IPC: 4 (Simulation time: 03 hr 09 min 30 sec)
Heartbeat CPU 3 instructions: 440000001 cycles: 110004251 heartbeat IPC: 4 cumulative IPC: 4 (Simulation time: 03 hr 09 min 30 sec)
*** Reached end of trace: (1, "traces/canneal_big1.champsimtrace")
Heartbeat CPU 1 instructions: 190000031 cycles: 110070683 heartbeat IPC: 1.76 cumulative IPC: 1.726 (Simulation time: 03 hr 09 min 37 sec)
*** Reached end of trace: (2, "traces/canneal_big2.champsimtrace")
*** Reached end of trace: (3, "traces/canneal_big3.champsimtrace")
*** Reached end of trace: (0, "traces/canneal_big0.champsimtrace")
Heartbeat CPU 0 instructions: 290000087 cycles: 111828480 heartbeat IPC: 2.598 cumulative IPC: 2.593 (Simulation time: 03 hr 12 min 33 sec)
*** Reached end of trace: (2, "traces/canneal_big2.champsimtrace")
*** Reached end of trace: (3, "traces/canneal_big3.champsimtrace")
Heartbeat CPU 2 instructions: 450000001 cycles: 112504204 heartbeat IPC: 4 cumulative IPC: 4 (Simulation time: 03 hr 13 min 43 sec)
Heartbeat CPU 3 instructions: 450000001 cycles: 112504251 heartbeat IPC: 4 cumulative IPC: 4 (Simulation time: 03 hr 13 min 43 sec)
*** Reached end of trace: (1, "traces/canneal_big1.champsimtrace")
*** Reached end of trace: (0, "traces/canneal_big0.champsimtrace")
*** Reached end of trace: (2, "traces/canneal_big2.champsimtrace")
*** Reached end of trace: (3, "traces/canneal_big3.champsimtrace")
*** Reached end of trace: (2, "traces/canneal_big2.champsimtrace")
*** Reached end of trace: (3, "traces/canneal_big3.champsimtrace")
Heartbeat CPU 2 instructions: 460000001 cycles: 115004204 heartbeat IPC: 4 cumulative IPC: 4 (Simulation time: 03 hr 18 min 15 sec)
Heartbeat CPU 3 instructions: 460000001 cycles: 115004251 heartbeat IPC: 4 cumulative IPC: 4 (Simulation time: 03 hr 18 min 15 sec)
*** Reached end of trace: (0, "traces/canneal_big0.champsimtrace")
Heartbeat CPU 0 instructions: 300000090 cycles: 115678171 heartbeat IPC: 2.598 cumulative IPC: 2.593 (Simulation time: 03 hr 19 min 26 sec)
*** Reached end of trace: (1, "traces/canneal_big1.champsimtrace")
Warmup finished CPU 1 instructions: 200000003 cycles: 115751610 cumulative IPC: 1.728 (Simulation time: 03 hr 19 min 34 sec)
Warmup complete CPU 3 instructions: 462989437 cycles: 115751610 cumulative IPC: 4 (Simulation time: 03 hr 19 min 34 sec)
Warmup complete CPU 2 instructions: 462989625 cycles: 115751610 cumulative IPC: 4 (Simulation time: 03 hr 19 min 34 sec)
Warmup complete CPU 1 instructions: 200000003 cycles: 115751610 cumulative IPC: 1.728 (Simulation time: 03 hr 19 min 34 sec)
Warmup complete CPU 0 instructions: 300258485 cycles: 115751610 cumulative IPC: 2.594 (Simulation time: 03 hr 19 min 34 sec)
Heartbeat CPU 1 instructions: 200000031 cycles: 115751637 heartbeat IPC: 1.76 cumulative IPC: 1.037 (Simulation time: 03 hr 19 min 34 sec)
*** Reached end of trace: (2, "traces/canneal_big2.champsimtrace")
*** Reached end of trace: (3, "traces/canneal_big3.champsimtrace")
*** Reached end of trace: (2, "traces/canneal_big2.champsimtrace")
*** Reached end of trace: (3, "traces/canneal_big3.champsimtrace")
Heartbeat CPU 2 instructions: 470000001 cycles: 117504204 heartbeat IPC: 4 cumulative IPC: 4 (Simulation time: 03 hr 22 min 34 sec)
Heartbeat CPU 3 instructions: 470000001 cycles: 117504251 heartbeat IPC: 4 cumulative IPC: 4 (Simulation time: 03 hr 22 min 34 sec)
*** Reached end of trace: (0, "traces/canneal_big0.champsimtrace")
*** Reached end of trace: (2, "traces/canneal_big2.champsimtrace")
*** Reached end of trace: (3, "traces/canneal_big3.champsimtrace")
*** Reached end of trace: (2, "traces/canneal_big2.champsimtrace")
*** Reached end of trace: (3, "traces/canneal_big3.champsimtrace")
Heartbeat CPU 2 instructions: 480000001 cycles: 120004204 heartbeat IPC: 4 cumulative IPC: 4 (Simulation time: 03 hr 26 min 50 sec)
Heartbeat CPU 3 instructions: 480000001 cycles: 120004251 heartbeat IPC: 4 cumulative IPC: 4 (Simulation time: 03 hr 26 min 50 sec)
*** Reached end of trace: (0, "traces/canneal_big0.champsimtrace")
Heartbeat CPU 0 instructions: 310000090 cycles: 120223712 heartbeat IPC: 2.2 cumulative IPC: 2.178 (Simulation time: 03 hr 27 min 15 sec)
*** Reached end of trace: (2, "traces/canneal_big2.champsimtrace")
*** Reached end of trace: (3, "traces/canneal_big3.champsimtrace")
*** Reached end of trace: (2, "traces/canneal_big2.champsimtrace")
*** Reached end of trace: (3, "traces/canneal_big3.champsimtrace")
Heartbeat CPU 2 instructions: 490000001 cycles: 122504204 heartbeat IPC: 4 cumulative IPC: 4 (Simulation time: 03 hr 31 min 07 sec)
Heartbeat CPU 3 instructions: 490000001 cycles: 122504251 heartbeat IPC: 4 cumulative IPC: 4 (Simulation time: 03 hr 31 min 07 sec)
*** Reached end of trace: (0, "traces/canneal_big0.champsimtrace")
*** Reached end of trace: (2, "traces/canneal_big2.champsimtrace")
*** Reached end of trace: (3, "traces/canneal_big3.champsimtrace")
*** Reached end of trace: (0, "traces/canneal_big0.champsimtrace")
Heartbeat CPU 0 instructions: 320000093 cycles: 124866216 heartbeat IPC: 2.154 cumulative IPC: 2.166 (Simulation time: 03 hr 35 min 05 sec)
*** Reached end of trace: (2, "traces/canneal_big2.champsimtrace")
*** Reached end of trace: (3, "traces/canneal_big3.champsimtrace")
Heartbeat CPU 2 instructions: 500000001 cycles: 125004204 heartbeat IPC: 4 cumulative IPC: 4 (Simulation time: 03 hr 35 min 17 sec)
Heartbeat CPU 3 instructions: 500000001 cycles: 125004251 heartbeat IPC: 4 cumulative IPC: 4 (Simulation time: 03 hr 35 min 17 sec)
*** Reached end of trace: (2, "traces/canneal_big2.champsimtrace")
*** Reached end of trace: (3, "traces/canneal_big3.champsimtrace")
*** Reached end of trace: (0, "traces/canneal_big0.champsimtrace")
*** Reached end of trace: (2, "traces/canneal_big2.champsimtrace")
*** Reached end of trace: (3, "traces/canneal_big3.champsimtrace")
Heartbeat CPU 2 instructions: 510000001 cycles: 127504204 heartbeat IPC: 4 cumulative IPC: 4 (Simulation time: 03 hr 39 min 34 sec)
Heartbeat CPU 3 instructions: 510000001 cycles: 127504251 heartbeat IPC: 4 cumulative IPC: 4 (Simulation time: 03 hr 39 min 34 sec)
Simulation finished CPU 3 instructions: 50000000 cycles: 12500000 cumulative IPC: 4 (Simulation time: 03 hr 40 min 50 sec)
Simulation finished CPU 2 instructions: 50000000 cycles: 12500000 cumulative IPC: 4 (Simulation time: 03 hr 40 min 50 sec)
*** Reached end of trace: (2, "traces/canneal_big2.champsimtrace")
*** Reached end of trace: (3, "traces/canneal_big3.champsimtrace")
*** Reached end of trace: (0, "traces/canneal_big0.champsimtrace")
Heartbeat CPU 0 instructions: 330000094 cycles: 129501048 heartbeat IPC: 2.158 cumulative IPC: 2.163 (Simulation time: 03 hr 43 min 07 sec)
*** Reached end of trace: (2, "traces/canneal_big2.champsimtrace")
*** Reached end of trace: (3, "traces/canneal_big3.champsimtrace")
Heartbeat CPU 2 instructions: 520000001 cycles: 130004204 heartbeat IPC: 4 cumulative IPC: 4 (Simulation time: 03 hr 44 min 00 sec)
Heartbeat CPU 3 instructions: 520000001 cycles: 130004251 heartbeat IPC: 4 cumulative IPC: 4 (Simulation time: 03 hr 44 min 00 sec)
*** Reached end of trace: (2, "traces/canneal_big2.champsimtrace")
*** Reached end of trace: (3, "traces/canneal_big3.champsimtrace")
*** Reached end of trace: (0, "traces/canneal_big0.champsimtrace")
*** Reached end of trace: (2, "traces/canneal_big2.champsimtrace")
*** Reached end of trace: (3, "traces/canneal_big3.champsimtrace")
Heartbeat CPU 2 instructions: 530000001 cycles: 132504204 heartbeat IPC: 4 cumulative IPC: 4 (Simulation time: 03 hr 48 min 07 sec)
Heartbeat CPU 3 instructions: 530000001 cycles: 132504251 heartbeat IPC: 4 cumulative IPC: 4 (Simulation time: 03 hr 48 min 07 sec)
*** Reached end of trace: (2, "traces/canneal_big2.champsimtrace")
*** Reached end of trace: (3, "traces/canneal_big3.champsimtrace")
*** Reached end of trace: (0, "traces/canneal_big0.champsimtrace")
Heartbeat CPU 0 instructions: 340000097 cycles: 134128404 heartbeat IPC: 2.161 cumulative IPC: 2.163 (Simulation time: 03 hr 50 min 45 sec)
*** Reached end of trace: (2, "traces/canneal_big2.champsimtrace")
*** Reached end of trace: (3, "traces/canneal_big3.champsimtrace")
Heartbeat CPU 2 instructions: 540000001 cycles: 135004204 heartbeat IPC: 4 cumulative IPC: 4 (Simulation time: 03 hr 52 min 14 sec)
Heartbeat CPU 3 instructions: 540000001 cycles: 135004251 heartbeat IPC: 4 cumulative IPC: 4 (Simulation time: 03 hr 52 min 14 sec)
*** Reached end of trace: (1, "traces/canneal_big1.champsimtrace")
*** Reached end of trace: (2, "traces/canneal_big2.champsimtrace")
*** Reached end of trace: (3, "traces/canneal_big3.champsimtrace")
*** Reached end of trace: (0, "traces/canneal_big0.champsimtrace")
*** Reached end of trace: (2, "traces/canneal_big2.champsimtrace")
*** Reached end of trace: (3, "traces/canneal_big3.champsimtrace")
Heartbeat CPU 2 instructions: 550000001 cycles: 137504204 heartbeat IPC: 4 cumulative IPC: 4 (Simulation time: 03 hr 56 min 11 sec)
Heartbeat CPU 3 instructions: 550000001 cycles: 137504251 heartbeat IPC: 4 cumulative IPC: 4 (Simulation time: 03 hr 56 min 11 sec)
*** Reached end of trace: (2, "traces/canneal_big2.champsimtrace")
*** Reached end of trace: (3, "traces/canneal_big3.champsimtrace")
*** Reached end of trace: (0, "traces/canneal_big0.champsimtrace")
Heartbeat CPU 0 instructions: 350000100 cycles: 138787472 heartbeat IPC: 2.146 cumulative IPC: 2.159 (Simulation time: 03 hr 58 min 20 sec)
Simulation finished CPU 0 instructions: 50000000 cycles: 23201780 cumulative IPC: 2.155 (Simulation time: 03 hr 58 min 34 sec)
*** Reached end of trace: (2, "traces/canneal_big2.champsimtrace")
*** Reached end of trace: (3, "traces/canneal_big3.champsimtrace")
Heartbeat CPU 2 instructions: 560000001 cycles: 140004204 heartbeat IPC: 4 cumulative IPC: 4 (Simulation time: 04 hr 00 min 19 sec)
Heartbeat CPU 3 instructions: 560000001 cycles: 140004251 heartbeat IPC: 4 cumulative IPC: 4 (Simulation time: 04 hr 00 min 19 sec)
*** Reached end of trace: (0, "traces/canneal_big0.champsimtrace")
*** Reached end of trace: (2, "traces/canneal_big2.champsimtrace")
*** Reached end of trace: (3, "traces/canneal_big3.champsimtrace")
*** Reached end of trace: (2, "traces/canneal_big2.champsimtrace")
*** Reached end of trace: (3, "traces/canneal_big3.champsimtrace")
Heartbeat CPU 2 instructions: 570000001 cycles: 142504204 heartbeat IPC: 4 cumulative IPC: 4 (Simulation time: 04 hr 04 min 25 sec)
Heartbeat CPU 3 instructions: 570000001 cycles: 142504251 heartbeat IPC: 4 cumulative IPC: 4 (Simulation time: 04 hr 04 min 25 sec)
*** Reached end of trace: (0, "traces/canneal_big0.champsimtrace")
Heartbeat CPU 0 instructions: 360000100 cycles: 143427531 heartbeat IPC: 2.155 cumulative IPC: 2.159 (Simulation time: 04 hr 05 min 57 sec)
*** Reached end of trace: (2, "traces/canneal_big2.champsimtrace")
*** Reached end of trace: (3, "traces/canneal_big3.champsimtrace")
*** Reached end of trace: (2, "traces/canneal_big2.champsimtrace")
*** Reached end of trace: (3, "traces/canneal_big3.champsimtrace")
Heartbeat CPU 2 instructions: 580000001 cycles: 145004204 heartbeat IPC: 4 cumulative IPC: 4 (Simulation time: 04 hr 08 min 32 sec)
Heartbeat CPU 3 instructions: 580000001 cycles: 145004251 heartbeat IPC: 4 cumulative IPC: 4 (Simulation time: 04 hr 08 min 32 sec)
*** Reached end of trace: (0, "traces/canneal_big0.champsimtrace")
*** Reached end of trace: (2, "traces/canneal_big2.champsimtrace")
*** Reached end of trace: (3, "traces/canneal_big3.champsimtrace")
*** Reached end of trace: (2, "traces/canneal_big2.champsimtrace")
*** Reached end of trace: (3, "traces/canneal_big3.champsimtrace")
Heartbeat CPU 2 instructions: 590000001 cycles: 147504204 heartbeat IPC: 4 cumulative IPC: 4 (Simulation time: 04 hr 12 min 37 sec)
Heartbeat CPU 3 instructions: 590000001 cycles: 147504251 heartbeat IPC: 4 cumulative IPC: 4 (Simulation time: 04 hr 12 min 37 sec)
*** Reached end of trace: (0, "traces/canneal_big0.champsimtrace")
Heartbeat CPU 0 instructions: 370000101 cycles: 148073283 heartbeat IPC: 2.153 cumulative IPC: 2.158 (Simulation time: 04 hr 13 min 36 sec)
*** Reached end of trace: (2, "traces/canneal_big2.champsimtrace")
*** Reached end of trace: (3, "traces/canneal_big3.champsimtrace")
*** Reached end of trace: (2, "traces/canneal_big2.champsimtrace")
*** Reached end of trace: (3, "traces/canneal_big3.champsimtrace")
Heartbeat CPU 2 instructions: 600000001 cycles: 150004204 heartbeat IPC: 4 cumulative IPC: 4 (Simulation time: 04 hr 16 min 52 sec)
Heartbeat CPU 3 instructions: 600000001 cycles: 150004251 heartbeat IPC: 4 cumulative IPC: 4 (Simulation time: 04 hr 16 min 52 sec)
*** Reached end of trace: (0, "traces/canneal_big0.champsimtrace")
*** Reached end of trace: (2, "traces/canneal_big2.champsimtrace")
*** Reached end of trace: (3, "traces/canneal_big3.champsimtrace")
*** Reached end of trace: (2, "traces/canneal_big2.champsimtrace")
*** Reached end of trace: (3, "traces/canneal_big3.champsimtrace")
Heartbeat CPU 2 instructions: 610000001 cycles: 152504204 heartbeat IPC: 4 cumulative IPC: 4 (Simulation time: 04 hr 21 min 10 sec)
Heartbeat CPU 3 instructions: 610000001 cycles: 152504251 heartbeat IPC: 4 cumulative IPC: 4 (Simulation time: 04 hr 21 min 10 sec)
*** Reached end of trace: (0, "traces/canneal_big0.champsimtrace")
Heartbeat CPU 0 instructions: 380000101 cycles: 152684172 heartbeat IPC: 2.169 cumulative IPC: 2.159 (Simulation time: 04 hr 21 min 30 sec)
*** Reached end of trace: (2, "traces/canneal_big2.champsimtrace")
*** Reached end of trace: (3, "traces/canneal_big3.champsimtrace")
*** Reached end of trace: (1, "traces/canneal_big1.champsimtrace")
Heartbeat CPU 1 instructions: 210000032 cycles: 154808071 heartbeat IPC: 0.256 cumulative IPC: 0.256 (Simulation time: 04 hr 24 min 47 sec)
*** Reached end of trace: (0, "traces/canneal_big0.champsimtrace")
*** Reached end of trace: (2, "traces/canneal_big2.champsimtrace")
*** Reached end of trace: (3, "traces/canneal_big3.champsimtrace")
Heartbeat CPU 2 instructions: 620000001 cycles: 155004204 heartbeat IPC: 4 cumulative IPC: 4 (Simulation time: 04 hr 25 min 06 sec)
Heartbeat CPU 3 instructions: 620000001 cycles: 155004251 heartbeat IPC: 4 cumulative IPC: 4 (Simulation time: 04 hr 25 min 06 sec)
*** Reached end of trace: (2, "traces/canneal_big2.champsimtrace")
*** Reached end of trace: (3, "traces/canneal_big3.champsimtrace")
*** Reached end of trace: (0, "traces/canneal_big0.champsimtrace")
Heartbeat CPU 0 instructions: 390000104 cycles: 157343193 heartbeat IPC: 2.146 cumulative IPC: 2.158 (Simulation time: 04 hr 28 min 57 sec)
*** Reached end of trace: (2, "traces/canneal_big2.champsimtrace")
*** Reached end of trace: (3, "traces/canneal_big3.champsimtrace")
Heartbeat CPU 2 instructions: 630000001 cycles: 157504204 heartbeat IPC: 4 cumulative IPC: 4 (Simulation time: 04 hr 29 min 14 sec)
Heartbeat CPU 3 instructions: 630000001 cycles: 157504251 heartbeat IPC: 4 cumulative IPC: 4 (Simulation time: 04 hr 29 min 14 sec)
*** Reached end of trace: (2, "traces/canneal_big2.champsimtrace")
*** Reached end of trace: (3, "traces/canneal_big3.champsimtrace")
*** Reached end of trace: (0, "traces/canneal_big0.champsimtrace")
*** Reached end of trace: (2, "traces/canneal_big2.champsimtrace")
*** Reached end of trace: (3, "traces/canneal_big3.champsimtrace")
Heartbeat CPU 2 instructions: 640000001 cycles: 160004204 heartbeat IPC: 4 cumulative IPC: 4 (Simulation time: 04 hr 33 min 33 sec)
Heartbeat CPU 3 instructions: 640000001 cycles: 160004251 heartbeat IPC: 4 cumulative IPC: 4 (Simulation time: 04 hr 33 min 33 sec)
*** Reached end of trace: (2, "traces/canneal_big2.champsimtrace")
*** Reached end of trace: (3, "traces/canneal_big3.champsimtrace")
*** Reached end of trace: (0, "traces/canneal_big0.champsimtrace")
Heartbeat CPU 0 instructions: 400000107 cycles: 161996604 heartbeat IPC: 2.149 cumulative IPC: 2.157 (Simulation time: 04 hr 36 min 44 sec)
*** Reached end of trace: (2, "traces/canneal_big2.champsimtrace")
*** Reached end of trace: (3, "traces/canneal_big3.champsimtrace")
Heartbeat CPU 2 instructions: 650000001 cycles: 162504204 heartbeat IPC: 4 cumulative IPC: 4 (Simulation time: 04 hr 37 min 41 sec)
Heartbeat CPU 3 instructions: 650000001 cycles: 162504251 heartbeat IPC: 4 cumulative IPC: 4 (Simulation time: 04 hr 37 min 41 sec)
*** Reached end of trace: (2, "traces/canneal_big2.champsimtrace")
*** Reached end of trace: (3, "traces/canneal_big3.champsimtrace")
*** Reached end of trace: (0, "traces/canneal_big0.champsimtrace")
*** Reached end of trace: (2, "traces/canneal_big2.champsimtrace")
*** Reached end of trace: (3, "traces/canneal_big3.champsimtrace")
Heartbeat CPU 2 instructions: 660000001 cycles: 165004204 heartbeat IPC: 4 cumulative IPC: 4 (Simulation time: 04 hr 42 min 05 sec)
Heartbeat CPU 3 instructions: 660000001 cycles: 165004251 heartbeat IPC: 4 cumulative IPC: 4 (Simulation time: 04 hr 42 min 05 sec)
*** Reached end of trace: (2, "traces/canneal_big2.champsimtrace")
*** Reached end of trace: (3, "traces/canneal_big3.champsimtrace")
*** Reached end of trace: (0, "traces/canneal_big0.champsimtrace")
Heartbeat CPU 0 instructions: 410000108 cycles: 166634414 heartbeat IPC: 2.156 cumulative IPC: 2.157 (Simulation time: 04 hr 44 min 35 sec)
*** Reached end of trace: (2, "traces/canneal_big2.champsimtrace")
*** Reached end of trace: (3, "traces/canneal_big3.champsimtrace")
Heartbeat CPU 2 instructions: 670000001 cycles: 167504204 heartbeat IPC: 4 cumulative IPC: 4 (Simulation time: 04 hr 45 min 50 sec)
Heartbeat CPU 3 instructions: 670000001 cycles: 167504251 heartbeat IPC: 4 cumulative IPC: 4 (Simulation time: 04 hr 45 min 50 sec)
*** Reached end of trace: (2, "traces/canneal_big2.champsimtrace")
*** Reached end of trace: (3, "traces/canneal_big3.champsimtrace")
*** Reached end of trace: (0, "traces/canneal_big0.champsimtrace")
*** Reached end of trace: (2, "traces/canneal_big2.champsimtrace")
*** Reached end of trace: (3, "traces/canneal_big3.champsimtrace")
Heartbeat CPU 2 instructions: 680000001 cycles: 170004204 heartbeat IPC: 4 cumulative IPC: 4 (Simulation time: 04 hr 49 min 52 sec)
Heartbeat CPU 3 instructions: 680000001 cycles: 170004251 heartbeat IPC: 4 cumulative IPC: 4 (Simulation time: 04 hr 49 min 52 sec)
*** Reached end of trace: (0, "traces/canneal_big0.champsimtrace")
Heartbeat CPU 0 instructions: 420000109 cycles: 171252767 heartbeat IPC: 2.165 cumulative IPC: 2.157 (Simulation time: 04 hr 51 min 53 sec)
*** Reached end of trace: (2, "traces/canneal_big2.champsimtrace")
*** Reached end of trace: (3, "traces/canneal_big3.champsimtrace")
*** Reached end of trace: (2, "traces/canneal_big2.champsimtrace")
*** Reached end of trace: (3, "traces/canneal_big3.champsimtrace")
Heartbeat CPU 2 instructions: 690000001 cycles: 172504204 heartbeat IPC: 4 cumulative IPC: 4 (Simulation time: 04 hr 53 min 51 sec)
Heartbeat CPU 3 instructions: 690000001 cycles: 172504251 heartbeat IPC: 4 cumulative IPC: 4 (Simulation time: 04 hr 53 min 51 sec)
*** Reached end of trace: (0, "traces/canneal_big0.champsimtrace")
*** Reached end of trace: (2, "traces/canneal_big2.champsimtrace")
*** Reached end of trace: (3, "traces/canneal_big3.champsimtrace")
*** Reached end of trace: (1, "traces/canneal_big1.champsimtrace")
*** Reached end of trace: (2, "traces/canneal_big2.champsimtrace")
*** Reached end of trace: (3, "traces/canneal_big3.champsimtrace")
Heartbeat CPU 2 instructions: 700000001 cycles: 175004204 heartbeat IPC: 4 cumulative IPC: 4 (Simulation time: 04 hr 57 min 56 sec)
Heartbeat CPU 3 instructions: 700000001 cycles: 175004251 heartbeat IPC: 4 cumulative IPC: 4 (Simulation time: 04 hr 57 min 56 sec)
*** Reached end of trace: (0, "traces/canneal_big0.champsimtrace")
Heartbeat CPU 0 instructions: 430000111 cycles: 175873576 heartbeat IPC: 2.164 cumulative IPC: 2.158 (Simulation time: 04 hr 59 min 21 sec)
*** Reached end of trace: (2, "traces/canneal_big2.champsimtrace")
*** Reached end of trace: (3, "traces/canneal_big3.champsimtrace")
*** Reached end of trace: (2, "traces/canneal_big2.champsimtrace")
*** Reached end of trace: (3, "traces/canneal_big3.champsimtrace")
Heartbeat CPU 2 instructions: 710000001 cycles: 177504204 heartbeat IPC: 4 cumulative IPC: 4 (Simulation time: 05 hr 02 min 15 sec)
Heartbeat CPU 3 instructions: 710000001 cycles: 177504251 heartbeat IPC: 4 cumulative IPC: 4 (Simulation time: 05 hr 02 min 15 sec)
*** Reached end of trace: (0, "traces/canneal_big0.champsimtrace")
*** Reached end of trace: (2, "traces/canneal_big2.champsimtrace")
*** Reached end of trace: (3, "traces/canneal_big3.champsimtrace")
*** Reached end of trace: (2, "traces/canneal_big2.champsimtrace")
*** Reached end of trace: (3, "traces/canneal_big3.champsimtrace")
Heartbeat CPU 2 instructions: 720000001 cycles: 180004204 heartbeat IPC: 4 cumulative IPC: 4 (Simulation time: 05 hr 06 min 29 sec)
Heartbeat CPU 3 instructions: 720000001 cycles: 180004251 heartbeat IPC: 4 cumulative IPC: 4 (Simulation time: 05 hr 06 min 29 sec)
*** Reached end of trace: (0, "traces/canneal_big0.champsimtrace")
Heartbeat CPU 0 instructions: 440000114 cycles: 180532222 heartbeat IPC: 2.147 cumulative IPC: 2.157 (Simulation time: 05 hr 07 min 24 sec)
*** Reached end of trace: (2, "traces/canneal_big2.champsimtrace")
*** Reached end of trace: (3, "traces/canneal_big3.champsimtrace")
*** Reached end of trace: (2, "traces/canneal_big2.champsimtrace")
*** Reached end of trace: (3, "traces/canneal_big3.champsimtrace")
Heartbeat CPU 2 instructions: 730000001 cycles: 182504204 heartbeat IPC: 4 cumulative IPC: 4 (Simulation time: 05 hr 10 min 46 sec)
Heartbeat CPU 3 instructions: 730000001 cycles: 182504251 heartbeat IPC: 4 cumulative IPC: 4 (Simulation time: 05 hr 10 min 46 sec)
*** Reached end of trace: (0, "traces/canneal_big0.champsimtrace")
*** Reached end of trace: (2, "traces/canneal_big2.champsimtrace")
*** Reached end of trace: (3, "traces/canneal_big3.champsimtrace")
*** Reached end of trace: (2, "traces/canneal_big2.champsimtrace")
*** Reached end of trace: (3, "traces/canneal_big3.champsimtrace")
Heartbeat CPU 2 instructions: 740000001 cycles: 185004204 heartbeat IPC: 4 cumulative IPC: 4 (Simulation time: 05 hr 14 min 52 sec)
Heartbeat CPU 3 instructions: 740000001 cycles: 185004251 heartbeat IPC: 4 cumulative IPC: 4 (Simulation time: 05 hr 14 min 52 sec)
*** Reached end of trace: (0, "traces/canneal_big0.champsimtrace")
Heartbeat CPU 0 instructions: 450000115 cycles: 185172237 heartbeat IPC: 2.155 cumulative IPC: 2.157 (Simulation time: 05 hr 15 min 09 sec)
*** Reached end of trace: (2, "traces/canneal_big2.champsimtrace")
*** Reached end of trace: (3, "traces/canneal_big3.champsimtrace")
*** Reached end of trace: (0, "traces/canneal_big0.champsimtrace")
*** Reached end of trace: (2, "traces/canneal_big2.champsimtrace")
*** Reached end of trace: (3, "traces/canneal_big3.champsimtrace")
Heartbeat CPU 2 instructions: 750000001 cycles: 187504204 heartbeat IPC: 4 cumulative IPC: 4 (Simulation time: 05 hr 19 min 22 sec)
Heartbeat CPU 3 instructions: 750000001 cycles: 187504251 heartbeat IPC: 4 cumulative IPC: 4 (Simulation time: 05 hr 19 min 22 sec)
*** Reached end of trace: (2, "traces/canneal_big2.champsimtrace")
*** Reached end of trace: (3, "traces/canneal_big3.champsimtrace")
*** Reached end of trace: (0, "traces/canneal_big0.champsimtrace")
Heartbeat CPU 0 instructions: 460000118 cycles: 189794058 heartbeat IPC: 2.164 cumulative IPC: 2.157 (Simulation time: 05 hr 23 min 47 sec)
*** Reached end of trace: (2, "traces/canneal_big2.champsimtrace")
*** Reached end of trace: (3, "traces/canneal_big3.champsimtrace")
Heartbeat CPU 2 instructions: 760000001 cycles: 190004204 heartbeat IPC: 4 cumulative IPC: 4 (Simulation time: 05 hr 24 min 12 sec)
Heartbeat CPU 3 instructions: 760000001 cycles: 190004251 heartbeat IPC: 4 cumulative IPC: 4 (Simulation time: 05 hr 24 min 12 sec)
*** Reached end of trace: (2, "traces/canneal_big2.champsimtrace")
*** Reached end of trace: (3, "traces/canneal_big3.champsimtrace")
*** Reached end of trace: (0, "traces/canneal_big0.champsimtrace")
*** Reached end of trace: (2, "traces/canneal_big2.champsimtrace")
*** Reached end of trace: (3, "traces/canneal_big3.champsimtrace")
Heartbeat CPU 2 instructions: 770000001 cycles: 192504204 heartbeat IPC: 4 cumulative IPC: 4 (Simulation time: 05 hr 29 min 08 sec)
Heartbeat CPU 3 instructions: 770000001 cycles: 192504251 heartbeat IPC: 4 cumulative IPC: 4 (Simulation time: 05 hr 29 min 08 sec)
*** Reached end of trace: (2, "traces/canneal_big2.champsimtrace")
*** Reached end of trace: (3, "traces/canneal_big3.champsimtrace")
*** Reached end of trace: (1, "traces/canneal_big1.champsimtrace")
Heartbeat CPU 1 instructions: 220000034 cycles: 194174347 heartbeat IPC: 0.254 cumulative IPC: 0.255 (Simulation time: 05 hr 32 min 11 sec)
*** Reached end of trace: (0, "traces/canneal_big0.champsimtrace")
Heartbeat CPU 0 instructions: 470000121 cycles: 194420919 heartbeat IPC: 2.161 cumulative IPC: 2.158 (Simulation time: 05 hr 32 min 38 sec)
*** Reached end of trace: (2, "traces/canneal_big2.champsimtrace")
*** Reached end of trace: (3, "traces/canneal_big3.champsimtrace")
Heartbeat CPU 2 instructions: 780000001 cycles: 195004204 heartbeat IPC: 4 cumulative IPC: 4 (Simulation time: 05 hr 33 min 40 sec)
Heartbeat CPU 3 instructions: 780000001 cycles: 195004251 heartbeat IPC: 4 cumulative IPC: 4 (Simulation time: 05 hr 33 min 40 sec)
*** Reached end of trace: (2, "traces/canneal_big2.champsimtrace")
*** Reached end of trace: (3, "traces/canneal_big3.champsimtrace")
*** Reached end of trace: (0, "traces/canneal_big0.champsimtrace")
*** Reached end of trace: (2, "traces/canneal_big2.champsimtrace")
*** Reached end of trace: (3, "traces/canneal_big3.champsimtrace")
Heartbeat CPU 2 instructions: 790000001 cycles: 197504204 heartbeat IPC: 4 cumulative IPC: 4 (Simulation time: 05 hr 38 min 27 sec)
Heartbeat CPU 3 instructions: 790000001 cycles: 197504251 heartbeat IPC: 4 cumulative IPC: 4 (Simulation time: 05 hr 38 min 27 sec)
*** Reached end of trace: (2, "traces/canneal_big2.champsimtrace")
*** Reached end of trace: (3, "traces/canneal_big3.champsimtrace")
*** Reached end of trace: (0, "traces/canneal_big0.champsimtrace")
Heartbeat CPU 0 instructions: 480000124 cycles: 199087222 heartbeat IPC: 2.143 cumulative IPC: 2.157 (Simulation time: 05 hr 41 min 36 sec)
*** Reached end of trace: (2, "traces/canneal_big2.champsimtrace")
*** Reached end of trace: (3, "traces/canneal_big3.champsimtrace")
Heartbeat CPU 2 instructions: 800000001 cycles: 200004204 heartbeat IPC: 4 cumulative IPC: 4 (Simulation time: 05 hr 43 min 25 sec)
Heartbeat CPU 3 instructions: 800000001 cycles: 200004251 heartbeat IPC: 4 cumulative IPC: 4 (Simulation time: 05 hr 43 min 25 sec)
*** Reached end of trace: (2, "traces/canneal_big2.champsimtrace")
*** Reached end of trace: (3, "traces/canneal_big3.champsimtrace")
*** Reached end of trace: (0, "traces/canneal_big0.champsimtrace")
*** Reached end of trace: (2, "traces/canneal_big2.champsimtrace")
*** Reached end of trace: (3, "traces/canneal_big3.champsimtrace")
Heartbeat CPU 2 instructions: 810000001 cycles: 202504204 heartbeat IPC: 4 cumulative IPC: 4 (Simulation time: 05 hr 48 min 26 sec)
Heartbeat CPU 3 instructions: 810000001 cycles: 202504251 heartbeat IPC: 4 cumulative IPC: 4 (Simulation time: 05 hr 48 min 26 sec)
*** Reached end of trace: (0, "traces/canneal_big0.champsimtrace")
Heartbeat CPU 0 instructions: 490000127 cycles: 203723531 heartbeat IPC: 2.157 cumulative IPC: 2.157 (Simulation time: 05 hr 50 min 52 sec)
*** Reached end of trace: (2, "traces/canneal_big2.champsimtrace")
*** Reached end of trace: (3, "traces/canneal_big3.champsimtrace")
*** Reached end of trace: (2, "traces/canneal_big2.champsimtrace")
*** Reached end of trace: (3, "traces/canneal_big3.champsimtrace")
Heartbeat CPU 2 instructions: 820000001 cycles: 205004204 heartbeat IPC: 4 cumulative IPC: 4 (Simulation time: 05 hr 53 min 25 sec)
Heartbeat CPU 3 instructions: 820000001 cycles: 205004251 heartbeat IPC: 4 cumulative IPC: 4 (Simulation time: 05 hr 53 min 25 sec)
*** Reached end of trace: (0, "traces/canneal_big0.champsimtrace")
*** Reached end of trace: (2, "traces/canneal_big2.champsimtrace")
*** Reached end of trace: (3, "traces/canneal_big3.champsimtrace")
*** Reached end of trace: (2, "traces/canneal_big2.champsimtrace")
*** Reached end of trace: (3, "traces/canneal_big3.champsimtrace")
Heartbeat CPU 2 instructions: 830000001 cycles: 207504204 heartbeat IPC: 4 cumulative IPC: 4 (Simulation time: 05 hr 58 min 23 sec)
Heartbeat CPU 3 instructions: 830000001 cycles: 207504251 heartbeat IPC: 4 cumulative IPC: 4 (Simulation time: 05 hr 58 min 23 sec)
*** Reached end of trace: (0, "traces/canneal_big0.champsimtrace")
Heartbeat CPU 0 instructions: 500000130 cycles: 208352607 heartbeat IPC: 2.16 cumulative IPC: 2.157 (Simulation time: 06 hr 00 min 05 sec)
*** Reached end of trace: (2, "traces/canneal_big2.champsimtrace")
*** Reached end of trace: (3, "traces/canneal_big3.champsimtrace")
*** Reached end of trace: (2, "traces/canneal_big2.champsimtrace")
*** Reached end of trace: (3, "traces/canneal_big3.champsimtrace")
Heartbeat CPU 2 instructions: 840000001 cycles: 210004204 heartbeat IPC: 4 cumulative IPC: 4 (Simulation time: 06 hr 03 min 22 sec)
Heartbeat CPU 3 instructions: 840000001 cycles: 210004251 heartbeat IPC: 4 cumulative IPC: 4 (Simulation time: 06 hr 03 min 22 sec)
*** Reached end of trace: (0, "traces/canneal_big0.champsimtrace")
*** Reached end of trace: (2, "traces/canneal_big2.champsimtrace")
*** Reached end of trace: (3, "traces/canneal_big3.champsimtrace")
*** Reached end of trace: (2, "traces/canneal_big2.champsimtrace")
*** Reached end of trace: (3, "traces/canneal_big3.champsimtrace")
Heartbeat CPU 2 instructions: 850000001 cycles: 212504204 heartbeat IPC: 4 cumulative IPC: 4 (Simulation time: 06 hr 08 min 00 sec)
Heartbeat CPU 3 instructions: 850000001 cycles: 212504251 heartbeat IPC: 4 cumulative IPC: 4 (Simulation time: 06 hr 08 min 00 sec)
*** Reached end of trace: (0, "traces/canneal_big0.champsimtrace")
Heartbeat CPU 0 instructions: 510000133 cycles: 212983890 heartbeat IPC: 2.159 cumulative IPC: 2.157 (Simulation time: 06 hr 08 min 53 sec)
*** Reached end of trace: (1, "traces/canneal_big1.champsimtrace")
*** Reached end of trace: (2, "traces/canneal_big2.champsimtrace")
*** Reached end of trace: (3, "traces/canneal_big3.champsimtrace")
*** Reached end of trace: (2, "traces/canneal_big2.champsimtrace")
*** Reached end of trace: (3, "traces/canneal_big3.champsimtrace")
Heartbeat CPU 2 instructions: 860000001 cycles: 215004204 heartbeat IPC: 4 cumulative IPC: 4 (Simulation time: 06 hr 12 min 33 sec)
Heartbeat CPU 3 instructions: 860000001 cycles: 215004251 heartbeat IPC: 4 cumulative IPC: 4 (Simulation time: 06 hr 12 min 33 sec)
*** Reached end of trace: (0, "traces/canneal_big0.champsimtrace")
*** Reached end of trace: (2, "traces/canneal_big2.champsimtrace")
*** Reached end of trace: (3, "traces/canneal_big3.champsimtrace")
*** Reached end of trace: (2, "traces/canneal_big2.champsimtrace")
*** Reached end of trace: (3, "traces/canneal_big3.champsimtrace")
Heartbeat CPU 2 instructions: 870000001 cycles: 217504204 heartbeat IPC: 4 cumulative IPC: 4 (Simulation time: 06 hr 17 min 10 sec)
Heartbeat CPU 3 instructions: 870000001 cycles: 217504251 heartbeat IPC: 4 cumulative IPC: 4 (Simulation time: 06 hr 17 min 10 sec)
*** Reached end of trace: (0, "traces/canneal_big0.champsimtrace")
Heartbeat CPU 0 instructions: 520000135 cycles: 217645103 heartbeat IPC: 2.145 cumulative IPC: 2.157 (Simulation time: 06 hr 17 min 25 sec)
*** Reached end of trace: (2, "traces/canneal_big2.champsimtrace")
*** Reached end of trace: (3, "traces/canneal_big3.champsimtrace")
*** Reached end of trace: (0, "traces/canneal_big0.champsimtrace")
*** Reached end of trace: (2, "traces/canneal_big2.champsimtrace")
*** Reached end of trace: (3, "traces/canneal_big3.champsimtrace")
Heartbeat CPU 2 instructions: 880000001 cycles: 220004204 heartbeat IPC: 4 cumulative IPC: 4 (Simulation time: 06 hr 21 min 52 sec)
Heartbeat CPU 3 instructions: 880000001 cycles: 220004251 heartbeat IPC: 4 cumulative IPC: 4 (Simulation time: 06 hr 21 min 52 sec)
*** Reached end of trace: (2, "traces/canneal_big2.champsimtrace")
*** Reached end of trace: (3, "traces/canneal_big3.champsimtrace")
*** Reached end of trace: (0, "traces/canneal_big0.champsimtrace")
Heartbeat CPU 0 instructions: 530000136 cycles: 222283580 heartbeat IPC: 2.156 cumulative IPC: 2.157 (Simulation time: 06 hr 26 min 16 sec)
*** Reached end of trace: (2, "traces/canneal_big2.champsimtrace")
*** Reached end of trace: (3, "traces/canneal_big3.champsimtrace")
Heartbeat CPU 2 instructions: 890000001 cycles: 222504204 heartbeat IPC: 4 cumulative IPC: 4 (Simulation time: 06 hr 26 min 42 sec)
Heartbeat CPU 3 instructions: 890000001 cycles: 222504251 heartbeat IPC: 4 cumulative IPC: 4 (Simulation time: 06 hr 26 min 42 sec)
*** Reached end of trace: (2, "traces/canneal_big2.champsimtrace")
*** Reached end of trace: (3, "traces/canneal_big3.champsimtrace")
*** Reached end of trace: (0, "traces/canneal_big0.champsimtrace")
*** Reached end of trace: (2, "traces/canneal_big2.champsimtrace")
*** Reached end of trace: (3, "traces/canneal_big3.champsimtrace")
Heartbeat CPU 2 instructions: 900000001 cycles: 225004204 heartbeat IPC: 4 cumulative IPC: 4 (Simulation time: 06 hr 31 min 27 sec)
Heartbeat CPU 3 instructions: 900000001 cycles: 225004251 heartbeat IPC: 4 cumulative IPC: 4 (Simulation time: 06 hr 31 min 27 sec)
*** Reached end of trace: (2, "traces/canneal_big2.champsimtrace")
*** Reached end of trace: (3, "traces/canneal_big3.champsimtrace")
*** Reached end of trace: (0, "traces/canneal_big0.champsimtrace")
Heartbeat CPU 0 instructions: 540000137 cycles: 226919482 heartbeat IPC: 2.157 cumulative IPC: 2.157 (Simulation time: 06 hr 35 min 01 sec)
*** Reached end of trace: (2, "traces/canneal_big2.champsimtrace")
*** Reached end of trace: (3, "traces/canneal_big3.champsimtrace")
Heartbeat CPU 2 instructions: 910000001 cycles: 227504204 heartbeat IPC: 4 cumulative IPC: 4 (Simulation time: 06 hr 36 min 04 sec)
Heartbeat CPU 3 instructions: 910000001 cycles: 227504251 heartbeat IPC: 4 cumulative IPC: 4 (Simulation time: 06 hr 36 min 04 sec)
*** Reached end of trace: (2, "traces/canneal_big2.champsimtrace")
*** Reached end of trace: (3, "traces/canneal_big3.champsimtrace")
*** Reached end of trace: (0, "traces/canneal_big0.champsimtrace")
*** Reached end of trace: (2, "traces/canneal_big2.champsimtrace")
*** Reached end of trace: (3, "traces/canneal_big3.champsimtrace")
Heartbeat CPU 2 instructions: 920000001 cycles: 230004204 heartbeat IPC: 4 cumulative IPC: 4 (Simulation time: 06 hr 40 min 40 sec)
Heartbeat CPU 3 instructions: 920000001 cycles: 230004251 heartbeat IPC: 4 cumulative IPC: 4 (Simulation time: 06 hr 40 min 40 sec)
*** Reached end of trace: (2, "traces/canneal_big2.champsimtrace")
*** Reached end of trace: (3, "traces/canneal_big3.champsimtrace")
*** Reached end of trace: (0, "traces/canneal_big0.champsimtrace")
Heartbeat CPU 0 instructions: 550000140 cycles: 231549223 heartbeat IPC: 2.16 cumulative IPC: 2.157 (Simulation time: 06 hr 43 min 44 sec)
*** Reached end of trace: (2, "traces/canneal_big2.champsimtrace")
*** Reached end of trace: (3, "traces/canneal_big3.champsimtrace")
Heartbeat CPU 2 instructions: 930000001 cycles: 232504204 heartbeat IPC: 4 cumulative IPC: 4 (Simulation time: 06 hr 45 min 35 sec)
Heartbeat CPU 3 instructions: 930000001 cycles: 232504251 heartbeat IPC: 4 cumulative IPC: 4 (Simulation time: 06 hr 45 min 35 sec)
*** Reached end of trace: (1, "traces/canneal_big1.champsimtrace")
Heartbeat CPU 1 instructions: 230000035 cycles: 233458273 heartbeat IPC: 0.2546 cumulative IPC: 0.2549 (Simulation time: 06 hr 47 min 24 sec)
*** Reached end of trace: (2, "traces/canneal_big2.champsimtrace")
*** Reached end of trace: (3, "traces/canneal_big3.champsimtrace")
*** Reached end of trace: (0, "traces/canneal_big0.champsimtrace")
*** Reached end of trace: (2, "traces/canneal_big2.champsimtrace")
*** Reached end of trace: (3, "traces/canneal_big3.champsimtrace")
Heartbeat CPU 2 instructions: 940000001 cycles: 235004204 heartbeat IPC: 4 cumulative IPC: 4 (Simulation time: 06 hr 50 min 16 sec)
Heartbeat CPU 3 instructions: 940000001 cycles: 235004251 heartbeat IPC: 4 cumulative IPC: 4 (Simulation time: 06 hr 50 min 16 sec)
*** Reached end of trace: (0, "traces/canneal_big0.champsimtrace")
Heartbeat CPU 0 instructions: 560000142 cycles: 236204564 heartbeat IPC: 2.148 cumulative IPC: 2.156 (Simulation time: 06 hr 52 min 29 sec)
*** Reached end of trace: (2, "traces/canneal_big2.champsimtrace")
*** Reached end of trace: (3, "traces/canneal_big3.champsimtrace")
*** Reached end of trace: (2, "traces/canneal_big2.champsimtrace")
*** Reached end of trace: (3, "traces/canneal_big3.champsimtrace")
Heartbeat CPU 2 instructions: 950000001 cycles: 237504204 heartbeat IPC: 4 cumulative IPC: 4 (Simulation time: 06 hr 54 min 56 sec)
Heartbeat CPU 3 instructions: 950000001 cycles: 237504251 heartbeat IPC: 4 cumulative IPC: 4 (Simulation time: 06 hr 54 min 56 sec)
*** Reached end of trace: (0, "traces/canneal_big0.champsimtrace")
*** Reached end of trace: (2, "traces/canneal_big2.champsimtrace")
*** Reached end of trace: (3, "traces/canneal_big3.champsimtrace")
*** Reached end of trace: (2, "traces/canneal_big2.champsimtrace")
*** Reached end of trace: (3, "traces/canneal_big3.champsimtrace")
Heartbeat CPU 2 instructions: 960000001 cycles: 240004204 heartbeat IPC: 4 cumulative IPC: 4 (Simulation time: 06 hr 59 min 51 sec)
Heartbeat CPU 3 instructions: 960000001 cycles: 240004251 heartbeat IPC: 4 cumulative IPC: 4 (Simulation time: 06 hr 59 min 51 sec)
*** Reached end of trace: (0, "traces/canneal_big0.champsimtrace")
Heartbeat CPU 0 instructions: 570000143 cycles: 240850193 heartbeat IPC: 2.153 cumulative IPC: 2.156 (Simulation time: 07 hr 01 min 31 sec)
*** Reached end of trace: (2, "traces/canneal_big2.champsimtrace")
*** Reached end of trace: (3, "traces/canneal_big3.champsimtrace")
*** Reached end of trace: (2, "traces/canneal_big2.champsimtrace")
*** Reached end of trace: (3, "traces/canneal_big3.champsimtrace")
Heartbeat CPU 2 instructions: 970000001 cycles: 242504204 heartbeat IPC: 4 cumulative IPC: 4 (Simulation time: 07 hr 04 min 48 sec)
Heartbeat CPU 3 instructions: 970000001 cycles: 242504251 heartbeat IPC: 4 cumulative IPC: 4 (Simulation time: 07 hr 04 min 48 sec)
*** Reached end of trace: (0, "traces/canneal_big0.champsimtrace")
*** Reached end of trace: (2, "traces/canneal_big2.champsimtrace")
*** Reached end of trace: (3, "traces/canneal_big3.champsimtrace")
*** Reached end of trace: (2, "traces/canneal_big2.champsimtrace")
*** Reached end of trace: (3, "traces/canneal_big3.champsimtrace")
Heartbeat CPU 2 instructions: 980000001 cycles: 245004204 heartbeat IPC: 4 cumulative IPC: 4 (Simulation time: 07 hr 09 min 39 sec)
Heartbeat CPU 3 instructions: 980000001 cycles: 245004251 heartbeat IPC: 4 cumulative IPC: 4 (Simulation time: 07 hr 09 min 39 sec)
*** Reached end of trace: (0, "traces/canneal_big0.champsimtrace")
Heartbeat CPU 0 instructions: 580000144 cycles: 245491145 heartbeat IPC: 2.155 cumulative IPC: 2.156 (Simulation time: 07 hr 10 min 34 sec)
*** Reached end of trace: (2, "traces/canneal_big2.champsimtrace")
*** Reached end of trace: (3, "traces/canneal_big3.champsimtrace")
*** Reached end of trace: (2, "traces/canneal_big2.champsimtrace")
*** Reached end of trace: (3, "traces/canneal_big3.champsimtrace")
Heartbeat CPU 2 instructions: 990000001 cycles: 247504204 heartbeat IPC: 4 cumulative IPC: 4 (Simulation time: 07 hr 14 min 35 sec)
Heartbeat CPU 3 instructions: 990000001 cycles: 247504251 heartbeat IPC: 4 cumulative IPC: 4 (Simulation time: 07 hr 14 min 35 sec)
*** Reached end of trace: (0, "traces/canneal_big0.champsimtrace")
*** Reached end of trace: (2, "traces/canneal_big2.champsimtrace")
*** Reached end of trace: (3, "traces/canneal_big3.champsimtrace")
*** Reached end of trace: (2, "traces/canneal_big2.champsimtrace")
*** Reached end of trace: (3, "traces/canneal_big3.champsimtrace")
Heartbeat CPU 2 instructions: 1000000001 cycles: 250004204 heartbeat IPC: 4 cumulative IPC: 4 (Simulation time: 07 hr 19 min 33 sec)
Heartbeat CPU 3 instructions: 1000000001 cycles: 250004251 heartbeat IPC: 4 cumulative IPC: 4 (Simulation time: 07 hr 19 min 33 sec)
*** Reached end of trace: (0, "traces/canneal_big0.champsimtrace")
Heartbeat CPU 0 instructions: 590000144 cycles: 250113327 heartbeat IPC: 2.163 cumulative IPC: 2.156 (Simulation time: 07 hr 19 min 46 sec)
*** Reached end of trace: (2, "traces/canneal_big2.champsimtrace")
*** Reached end of trace: (3, "traces/canneal_big3.champsimtrace")
*** Reached end of trace: (0, "traces/canneal_big0.champsimtrace")
*** Reached end of trace: (2, "traces/canneal_big2.champsimtrace")
*** Reached end of trace: (3, "traces/canneal_big3.champsimtrace")
Heartbeat CPU 2 instructions: 1010000001 cycles: 252504204 heartbeat IPC: 4 cumulative IPC: 4 (Simulation time: 07 hr 24 min 30 sec)
Heartbeat CPU 3 instructions: 1010000001 cycles: 252504251 heartbeat IPC: 4 cumulative IPC: 4 (Simulation time: 07 hr 24 min 30 sec)
*** Reached end of trace: (1, "traces/canneal_big1.champsimtrace")
*** Reached end of trace: (2, "traces/canneal_big2.champsimtrace")
*** Reached end of trace: (3, "traces/canneal_big3.champsimtrace")
*** Reached end of trace: (0, "traces/canneal_big0.champsimtrace")
Heartbeat CPU 0 instructions: 600000145 cycles: 254757831 heartbeat IPC: 2.153 cumulative IPC: 2.156 (Simulation time: 07 hr 28 min 59 sec)
*** Reached end of trace: (2, "traces/canneal_big2.champsimtrace")
*** Reached end of trace: (3, "traces/canneal_big3.champsimtrace")
Heartbeat CPU 2 instructions: 1020000001 cycles: 255004204 heartbeat IPC: 4 cumulative IPC: 4 (Simulation time: 07 hr 29 min 28 sec)
Heartbeat CPU 3 instructions: 1020000001 cycles: 255004251 heartbeat IPC: 4 cumulative IPC: 4 (Simulation time: 07 hr 29 min 28 sec)
*** Reached end of trace: (2, "traces/canneal_big2.champsimtrace")
*** Reached end of trace: (3, "traces/canneal_big3.champsimtrace")
*** Reached end of trace: (0, "traces/canneal_big0.champsimtrace")
*** Reached end of trace: (2, "traces/canneal_big2.champsimtrace")
*** Reached end of trace: (3, "traces/canneal_big3.champsimtrace")
Heartbeat CPU 2 instructions: 1030000001 cycles: 257504204 heartbeat IPC: 4 cumulative IPC: 4 (Simulation time: 07 hr 34 min 26 sec)
Heartbeat CPU 3 instructions: 1030000001 cycles: 257504251 heartbeat IPC: 4 cumulative IPC: 4 (Simulation time: 07 hr 34 min 26 sec)
*** Reached end of trace: (2, "traces/canneal_big2.champsimtrace")
*** Reached end of trace: (3, "traces/canneal_big3.champsimtrace")
*** Reached end of trace: (0, "traces/canneal_big0.champsimtrace")
Heartbeat CPU 0 instructions: 610000148 cycles: 259418182 heartbeat IPC: 2.146 cumulative IPC: 2.156 (Simulation time: 07 hr 38 min 15 sec)
*** Reached end of trace: (2, "traces/canneal_big2.champsimtrace")
*** Reached end of trace: (3, "traces/canneal_big3.champsimtrace")
Heartbeat CPU 2 instructions: 1040000001 cycles: 260004204 heartbeat IPC: 4 cumulative IPC: 4 (Simulation time: 07 hr 39 min 29 sec)
Heartbeat CPU 3 instructions: 1040000001 cycles: 260004251 heartbeat IPC: 4 cumulative IPC: 4 (Simulation time: 07 hr 39 min 29 sec)
[...]
cpu0->cpu0_ITLB PREFETCH REQUESTED:          0 ISSUED:          0 USEFUL:          0 USELESS:          0
cpu0->cpu0_ITLB AVERAGE MISS LATENCY: 3.902 cycles
cpu0_ITLB COHERENCE INVALIDATIONS:          0
cpu0_ITLB COHERENCE WRITE-HIT OTHER-SHARER EVENTS:          0
cpu0->cpu0_DTLB TOTAL        ACCESS:   70443709 HIT:   70257727 MISS:     185982 MSHR_MERGE:      41535
cpu0->cpu0_DTLB LOAD         ACCESS:   70443709 HIT:   70257727 MISS:     185982 MSHR_MERGE:      41535
cpu0->cpu0_DTLB RFO          ACCESS:          0 HIT:          0 MISS:          0 MSHR_MERGE:          0
cpu0->cpu0_DTLB PREFETCH     ACCESS:          0 HIT:          0 MISS:          0 MSHR_MERGE:          0
cpu0->cpu0_DTLB WRITE        ACCESS:          0 HIT:          0 MISS:          0 MSHR_MERGE:          0
cpu0->cpu0_DTLB TRANSLATION  ACCESS:          0 HIT:          0 MISS:          0 MSHR_MERGE:          0
cpu0->cpu0_DTLB PREFETCH REQUESTED:          0 ISSUED:          0 USEFUL:          0 USELESS:          0
cpu0->cpu0_DTLB AVERAGE MISS LATENCY: 4 cycles
cpu0_DTLB COHERENCE INVALIDATIONS:          0
cpu0_DTLB COHERENCE WRITE-HIT OTHER-SHARER EVENTS:          0
cpu0->LLC TOTAL        ACCESS:    4716369 HIT:    2525496 MISS:    2190873 MSHR_MERGE:          4
cpu0->LLC LOAD         ACCESS:     535602 HIT:      65955 MISS:     469647 MSHR_MERGE:          0
cpu0->LLC RFO          ACCESS:    2079479 HIT:     359663 MISS:    1719816 MSHR_MERGE:          4
cpu0->LLC PREFETCH     ACCESS:          0 HIT:          0 MISS:          0 MSHR_MERGE:          0
cpu0->LLC WRITE        ACCESS:    2101288 HIT:    2099878 MISS:       1410 MSHR_MERGE:          0
cpu0->LLC TRANSLATION  ACCESS:          0 HIT:          0 MISS:          0 MSHR_MERGE:          0
cpu0->LLC PREFETCH REQUESTED:          0 ISSUED:          0 USEFUL:          0 USELESS:          0
cpu0->LLC AVERAGE MISS LATENCY: 398.7 cycles
cpu1->LLC TOTAL        ACCESS:     969653 HIT:      71812 MISS:     897841 MSHR_MERGE:          2
cpu1->LLC LOAD         ACCESS:     775895 HIT:      70560 MISS:     705335 MSHR_MERGE:          2
cpu1->LLC RFO          ACCESS:          0 HIT:          0 MISS:          0 MSHR_MERGE:          0
cpu1->LLC PREFETCH     ACCESS:          0 HIT:          0 MISS:          0 MSHR_MERGE:          0
cpu1->LLC WRITE        ACCESS:          0 HIT:          0 MISS:          0 MSHR_MERGE:          0
cpu1->LLC TRANSLATION  ACCESS:     193758 HIT:       1252 MISS:     192506 MSHR_MERGE:          0
cpu1->LLC PREFETCH REQUESTED:          0 ISSUED:          0 USEFUL:          0 USELESS:          0
cpu1->LLC AVERAGE MISS LATENCY: 972.9 cycles
LLC COHERENCE INVALIDATIONS:      50270
LLC COHERENCE WRITE-HIT OTHER-SHARER EVENTS:      50270

Region of Interest Statistics

CPU 3 cumulative IPC: 4 instructions: 50000000 cycles: 12500000
CPU 3 Branch Prediction Accuracy: -% MPKI: 0 Average ROB Occupancy at Mispredict: -
Branch type MPKI
BRANCH_DIRECT_JUMP: 0
BRANCH_INDIRECT: 0
BRANCH_CONDITIONAL: 0
BRANCH_DIRECT_CALL: 0
BRANCH_INDIRECT_CALL: 0
BRANCH_RETURN: 0


CPU 2 cumulative IPC: 4 instructions: 50000000 cycles: 12500000
CPU 2 Branch Prediction Accuracy: -% MPKI: 0 Average ROB Occupancy at Mispredict: -
Branch type MPKI
BRANCH_DIRECT_JUMP: 0
BRANCH_INDIRECT: 0
BRANCH_CONDITIONAL: 0
BRANCH_DIRECT_CALL: 0
BRANCH_INDIRECT_CALL: 0
BRANCH_RETURN: 0


CPU 1 cumulative IPC: 0.2547 instructions: 50000001 cycles: 196326956
CPU 1 Branch Prediction Accuracy: -% MPKI: 0 Average ROB Occupancy at Mispredict: -
Branch type MPKI
BRANCH_DIRECT_JUMP: 0
BRANCH_INDIRECT: 0
BRANCH_CONDITIONAL: 0
BRANCH_DIRECT_CALL: 0
BRANCH_INDIRECT_CALL: 0
BRANCH_RETURN: 0


CPU 0 cumulative IPC: 2.155 instructions: 50000000 cycles: 23201780
CPU 0 Branch Prediction Accuracy: -% MPKI: 0 Average ROB Occupancy at Mispredict: -
Branch type MPKI
BRANCH_DIRECT_JUMP: 0
BRANCH_INDIRECT: 0
BRANCH_CONDITIONAL: 0
BRANCH_DIRECT_CALL: 0
BRANCH_INDIRECT_CALL: 0
BRANCH_RETURN: 0

cpu3_STLB COHERENCE INVALIDATIONS:          0
cpu3_STLB COHERENCE WRITE-HIT OTHER-SHARER EVENTS:          0
cpu3_L2C COHERENCE INVALIDATIONS:          0
cpu3_L2C COHERENCE WRITE-HIT OTHER-SHARER EVENTS:          0
cpu3->cpu3_L1I TOTAL        ACCESS:  112331166 HIT:  112331166 MISS:          0 MSHR_MERGE:          0
cpu3->cpu3_L1I LOAD         ACCESS:  112331166 HIT:  112331166 MISS:          0 MSHR_MERGE:          0
cpu3->cpu3_L1I RFO          ACCESS:          0 HIT:          0 MISS:          0 MSHR_MERGE:          0
cpu3->cpu3_L1I PREFETCH     ACCESS:          0 HIT:          0 MISS:          0 MSHR_MERGE:          0
cpu3->cpu3_L1I WRITE        ACCESS:          0 HIT:          0 MISS:          0 MSHR_MERGE:          0
cpu3->cpu3_L1I TRANSLATION  ACCESS:          0 HIT:          0 MISS:          0 MSHR_MERGE:          0
cpu3->cpu3_L1I PREFETCH REQUESTED:          0 ISSUED:          0 USEFUL:          0 USELESS:          0
cpu3->cpu3_L1I AVERAGE MISS LATENCY: - cycles
cpu3_L1I COHERENCE INVALIDATIONS:          0
cpu3_L1I COHERENCE WRITE-HIT OTHER-SHARER EVENTS:          0
cpu3_L1D COHERENCE INVALIDATIONS:          0
cpu3_L1D COHERENCE WRITE-HIT OTHER-SHARER EVENTS:          0
cpu3->cpu3_ITLB TOTAL        ACCESS:   94072163 HIT:   94072163 MISS:          0 MSHR_MERGE:          0
cpu3->cpu3_ITLB LOAD         ACCESS:   94072163 HIT:   94072163 MISS:          0 MSHR_MERGE:          0
cpu3->cpu3_ITLB RFO          ACCESS:          0 HIT:          0 MISS:          0 MSHR_MERGE:          0
cpu3->cpu3_ITLB PREFETCH     ACCESS:          0 HIT:          0 MISS:          0 MSHR_MERGE:          0
cpu3->cpu3_ITLB WRITE        ACCESS:          0 HIT:          0 MISS:          0 MSHR_MERGE:          0
cpu3->cpu3_ITLB TRANSLATION  ACCESS:          0 HIT:          0 MISS:          0 MSHR_MERGE:          0
cpu3->cpu3_ITLB PREFETCH REQUESTED:          0 ISSUED:          0 USEFUL:          0 USELESS:          0
cpu3->cpu3_ITLB AVERAGE MISS LATENCY: - cycles
cpu3_ITLB COHERENCE INVALIDATIONS:          0
cpu3_ITLB COHERENCE WRITE-HIT OTHER-SHARER EVENTS:          0
cpu3_DTLB COHERENCE INVALIDATIONS:          0
cpu3_DTLB COHERENCE WRITE-HIT OTHER-SHARER EVENTS:          0
cpu2_STLB COHERENCE INVALIDATIONS:          0
cpu2_STLB COHERENCE WRITE-HIT OTHER-SHARER EVENTS:          0
cpu2_L2C COHERENCE INVALIDATIONS:          0
cpu2_L2C COHERENCE WRITE-HIT OTHER-SHARER EVENTS:          0
cpu2->cpu2_L1I TOTAL        ACCESS:  112833173 HIT:  112833173 MISS:          0 MSHR_MERGE:          0
cpu2->cpu2_L1I LOAD         ACCESS:  112833173 HIT:  112833173 MISS:          0 MSHR_MERGE:          0
cpu2->cpu2_L1I RFO          ACCESS:          0 HIT:          0 MISS:          0 MSHR_MERGE:          0
cpu2->cpu2_L1I PREFETCH     ACCESS:          0 HIT:          0 MISS:          0 MSHR_MERGE:          0
cpu2->cpu2_L1I WRITE        ACCESS:          0 HIT:          0 MISS:          0 MSHR_MERGE:          0
cpu2->cpu2_L1I TRANSLATION  ACCESS:          0 HIT:          0 MISS:          0 MSHR_MERGE:          0
cpu2->cpu2_L1I PREFETCH REQUESTED:          0 ISSUED:          0 USEFUL:          0 USELESS:          0
cpu2->cpu2_L1I AVERAGE MISS LATENCY: - cycles
cpu2_L1I COHERENCE INVALIDATIONS:          0
cpu2_L1I COHERENCE WRITE-HIT OTHER-SHARER EVENTS:          0
cpu2_L1D COHERENCE INVALIDATIONS:          0
cpu2_L1D COHERENCE WRITE-HIT OTHER-SHARER EVENTS:          0
cpu2->cpu2_ITLB TOTAL        ACCESS:   94146836 HIT:   94146836 MISS:          0 MSHR_MERGE:          0
cpu2->cpu2_ITLB LOAD         ACCESS:   94146836 HIT:   94146836 MISS:          0 MSHR_MERGE:          0
cpu2->cpu2_ITLB RFO          ACCESS:          0 HIT:          0 MISS:          0 MSHR_MERGE:          0
cpu2->cpu2_ITLB PREFETCH     ACCESS:          0 HIT:          0 MISS:          0 MSHR_MERGE:          0
cpu2->cpu2_ITLB WRITE        ACCESS:          0 HIT:          0 MISS:          0 MSHR_MERGE:          0
cpu2->cpu2_ITLB TRANSLATION  ACCESS:          0 HIT:          0 MISS:          0 MSHR_MERGE:          0
cpu2->cpu2_ITLB PREFETCH REQUESTED:          0 ISSUED:          0 USEFUL:          0 USELESS:          0
cpu2->cpu2_ITLB AVERAGE MISS LATENCY: - cycles
cpu2_ITLB COHERENCE INVALIDATIONS:          0
cpu2_ITLB COHERENCE WRITE-HIT OTHER-SHARER EVENTS:          0
cpu2_DTLB COHERENCE INVALIDATIONS:          0
cpu2_DTLB COHERENCE WRITE-HIT OTHER-SHARER EVENTS:          0
cpu1->cpu1_STLB TOTAL        ACCESS:    1110280 HIT:    1012172 MISS:      98108 MSHR_MERGE:          0
cpu1->cpu1_STLB LOAD         ACCESS:    1110280 HIT:    1012172 MISS:      98108 MSHR_MERGE:          0
cpu1->cpu1_STLB RFO          ACCESS:          0 HIT:          0 MISS:          0 MSHR_MERGE:          0
cpu1->cpu1_STLB PREFETCH     ACCESS:          0 HIT:          0 MISS:          0 MSHR_MERGE:          0
cpu1->cpu1_STLB WRITE        ACCESS:          0 HIT:          0 MISS:          0 MSHR_MERGE:          0
cpu1->cpu1_STLB TRANSLATION  ACCESS:          0 HIT:          0 MISS:          0 MSHR_MERGE:          0
cpu1->cpu1_STLB PREFETCH REQUESTED:          0 ISSUED:          0 USEFUL:          0 USELESS:          0
cpu1->cpu1_STLB AVERAGE MISS LATENCY: 612.5 cycles
cpu1_STLB COHERENCE INVALIDATIONS:          0
cpu1_STLB COHERENCE WRITE-HIT OTHER-SHARER EVENTS:          0
cpu1->cpu1_L2C TOTAL        ACCESS:    1176317 HIT:     206664 MISS:     969653 MSHR_MERGE:          0
cpu1->cpu1_L2C LOAD         ACCESS:     981909 HIT:     206014 MISS:     775895 MSHR_MERGE:          0
cpu1->cpu1_L2C RFO          ACCESS:          0 HIT:          0 MISS:          0 MSHR_MERGE:          0
cpu1->cpu1_L2C PREFETCH     ACCESS:          0 HIT:          0 MISS:          0 MSHR_MERGE:          0
cpu1->cpu1_L2C WRITE        ACCESS:          0 HIT:          0 MISS:          0 MSHR_MERGE:          0
cpu1->cpu1_L2C TRANSLATION  ACCESS:     194408 HIT:        650 MISS:     193758 MSHR_MERGE:          0
cpu1->cpu1_L2C PREFETCH REQUESTED:          0 ISSUED:          0 USEFUL:          0 USELESS:          0
cpu1->cpu1_L2C AVERAGE MISS LATENCY: 284.4 cycles
cpu1_L2C COHERENCE INVALIDATIONS:          0
cpu1_L2C COHERENCE WRITE-HIT OTHER-SHARER EVENTS:          0
cpu1->cpu1_L1I TOTAL        ACCESS:   16904298 HIT:   15830226 MISS:    1074072 MSHR_MERGE:      92164
cpu1->cpu1_L1I LOAD         ACCESS:   16904298 HIT:   15830226 MISS:    1074072 MSHR_MERGE:      92164
cpu1->cpu1_L1I RFO          ACCESS:          0 HIT:          0 MISS:          0 MSHR_MERGE:          0
cpu1->cpu1_L1I PREFETCH     ACCESS:          0 HIT:          0 MISS:          0 MSHR_MERGE:          0
cpu1->cpu1_L1I WRITE        ACCESS:          0 HIT:          0 MISS:          0 MSHR_MERGE:          0
cpu1->cpu1_L1I TRANSLATION  ACCESS:          0 HIT:          0 MISS:          0 MSHR_MERGE:          0
cpu1->cpu1_L1I PREFETCH REQUESTED:          0 ISSUED:          0 USEFUL:          0 USELESS:          0
cpu1->cpu1_L1I AVERAGE MISS LATENCY: 230.1 cycles
cpu1_L1I COHERENCE INVALIDATIONS:          0
cpu1_L1I COHERENCE WRITE-HIT OTHER-SHARER EVENTS:          0
cpu1->cpu1_L1D TOTAL        ACCESS:     196282 HIT:       1874 MISS:     194408 MSHR_MERGE:          0
cpu1->cpu1_L1D LOAD         ACCESS:          0 HIT:          0 MISS:          0 MSHR_MERGE:          0
cpu1->cpu1_L1D RFO          ACCESS:          0 HIT:          0 MISS:          0 MSHR_MERGE:          0
cpu1->cpu1_L1D PREFETCH     ACCESS:          0 HIT:          0 MISS:          0 MSHR_MERGE:          0
cpu1->cpu1_L1D WRITE        ACCESS:          0 HIT:          0 MISS:          0 MSHR_MERGE:          0
cpu1->cpu1_L1D TRANSLATION  ACCESS:     196282 HIT:       1874 MISS:     194408 MSHR_MERGE:          0
cpu1->cpu1_L1D PREFETCH REQUESTED:          0 ISSUED:          0 USEFUL:          0 USELESS:          0
cpu1->cpu1_L1D AVERAGE MISS LATENCY: 303.1 cycles
cpu1_L1D COHERENCE INVALIDATIONS:          0
cpu1_L1D COHERENCE WRITE-HIT OTHER-SHARER EVENTS:          0
cpu1->cpu1_ITLB TOTAL        ACCESS:   16636356 HIT:   15500623 MISS:    1135733 MSHR_MERGE:      25453
cpu1->cpu1_ITLB LOAD         ACCESS:   16636356 HIT:   15500623 MISS:    1135733 MSHR_MERGE:      25453
cpu1->cpu1_ITLB RFO          ACCESS:          0 HIT:          0 MISS:          0 MSHR_MERGE:          0
cpu1->cpu1_ITLB PREFETCH     ACCESS:          0 HIT:          0 MISS:          0 MSHR_MERGE:          0
cpu1->cpu1_ITLB WRITE        ACCESS:          0 HIT:          0 MISS:          0 MSHR_MERGE:          0
cpu1->cpu1_ITLB TRANSLATION  ACCESS:          0 HIT:          0 MISS:          0 MSHR_MERGE:          0
cpu1->cpu1_ITLB PREFETCH REQUESTED:          0 ISSUED:          0 USEFUL:          0 USELESS:          0
cpu1->cpu1_ITLB AVERAGE MISS LATENCY: 58.21 cycles
cpu1_ITLB COHERENCE INVALIDATIONS:          0
cpu1_ITLB COHERENCE WRITE-HIT OTHER-SHARER EVENTS:          0
cpu1_DTLB COHERENCE INVALIDATIONS:          0
cpu1_DTLB COHERENCE WRITE-HIT OTHER-SHARER EVENTS:          0
cpu0->cpu0_STLB TOTAL        ACCESS:     158981 HIT:     158981 MISS:          0 MSHR_MERGE:          0
cpu0->cpu0_STLB LOAD         ACCESS:     158981 HIT:     158981 MISS:          0 MSHR_MERGE:          0
cpu0->cpu0_STLB RFO          ACCESS:          0 HIT:          0 MISS:          0 MSHR_MERGE:          0
cpu0->cpu0_STLB PREFETCH     ACCESS:          0 HIT:          0 MISS:          0 MSHR_MERGE:          0
cpu0->cpu0_STLB WRITE        ACCESS:          0 HIT:          0 MISS:          0 MSHR_MERGE:          0
cpu0->cpu0_STLB TRANSLATION  ACCESS:          0 HIT:          0 MISS:          0 MSHR_MERGE:          0
cpu0->cpu0_STLB PREFETCH REQUESTED:          0 ISSUED:          0 USEFUL:          0 USELESS:          0
cpu0->cpu0_STLB AVERAGE MISS LATENCY: - cycles
cpu0_STLB COHERENCE INVALIDATIONS:          0
cpu0_STLB COHERENCE WRITE-HIT OTHER-SHARER EVENTS:          0
cpu0->cpu0_L2C TOTAL        ACCESS:    5069396 HIT:    2454222 MISS:    2615174 MSHR_MERGE:          0
cpu0->cpu0_L2C LOAD         ACCESS:     802489 HIT:     266887 MISS:     535602 MSHR_MERGE:          0
cpu0->cpu0_L2C RFO          ACCESS:    2117736 HIT:      38257 MISS:    2079479 MSHR_MERGE:          0
cpu0->cpu0_L2C PREFETCH     ACCESS:          0 HIT:          0 MISS:          0 MSHR_MERGE:          0
cpu0->cpu0_L2C WRITE        ACCESS:    2149171 HIT:    2149078 MISS:         93 MSHR_MERGE:          0
cpu0->cpu0_L2C TRANSLATION  ACCESS:          0 HIT:          0 MISS:          0 MSHR_MERGE:          0
cpu0->cpu0_L2C PREFETCH REQUESTED:          0 ISSUED:          0 USEFUL:          0 USELESS:          0
cpu0->cpu0_L2C AVERAGE MISS LATENCY: 250.4 cycles
cpu0_L2C COHERENCE INVALIDATIONS:          0
cpu0_L2C COHERENCE WRITE-HIT OTHER-SHARER EVENTS:          0
cpu0->cpu0_L1I TOTAL        ACCESS:   65331393 HIT:   65177769 MISS:     153624 MSHR_MERGE:      38292
cpu0->cpu0_L1I LOAD         ACCESS:   65331393 HIT:   65177769 MISS:     153624 MSHR_MERGE:      38292
cpu0->cpu0_L1I RFO          ACCESS:          0 HIT:          0 MISS:          0 MSHR_MERGE:          0
cpu0->cpu0_L1I PREFETCH     ACCESS:          0 HIT:          0 MISS:          0 MSHR_MERGE:          0
cpu0->cpu0_L1I WRITE        ACCESS:          0 HIT:          0 MISS:          0 MSHR_MERGE:          0
cpu0->cpu0_L1I TRANSLATION  ACCESS:          0 HIT:          0 MISS:          0 MSHR_MERGE:          0
cpu0->cpu0_L1I PREFETCH REQUESTED:          0 ISSUED:          0 USEFUL:          0 USELESS:          0
cpu0->cpu0_L1I AVERAGE MISS LATENCY: 299.5 cycles
cpu0_L1I COHERENCE INVALIDATIONS:          0
cpu0_L1I COHERENCE WRITE-HIT OTHER-SHARER EVENTS:          0
cpu0->cpu0_L1D TOTAL        ACCESS:   84547121 HIT:   69604719 MISS:   14942402 MSHR_MERGE:   12135542
cpu0->cpu0_L1D LOAD         ACCESS:    8651590 HIT:    7284861 MISS:    1366729 MSHR_MERGE:     679572
cpu0->cpu0_L1D RFO          ACCESS:          0 HIT:          0 MISS:          0 MSHR_MERGE:          0
cpu0->cpu0_L1D PREFETCH     ACCESS:          0 HIT:          0 MISS:          0 MSHR_MERGE:          0
cpu0->cpu0_L1D WRITE        ACCESS:   75895531 HIT:   62319858 MISS:   13575673 MSHR_MERGE:   11455970
cpu0->cpu0_L1D TRANSLATION  ACCESS:          0 HIT:          0 MISS:          0 MSHR_MERGE:          0
cpu0->cpu0_L1D PREFETCH REQUESTED:          0 ISSUED:          0 USEFUL:          0 USELESS:          0
cpu0->cpu0_L1D AVERAGE MISS LATENCY: 229.4 cycles
cpu0_L1D COHERENCE INVALIDATIONS:          0
cpu0_L1D COHERENCE WRITE-HIT OTHER-SHARER EVENTS:          0
cpu0->cpu0_ITLB TOTAL        ACCESS:   56247016 HIT:   56223985 MISS:      23031 MSHR_MERGE:       8497
cpu0->cpu0_ITLB LOAD         ACCESS:   56247016 HIT:   56223985 MISS:      23031 MSHR_MERGE:       8497
cpu0->cpu0_ITLB RFO          ACCESS:          0 HIT:          0 MISS:          0 MSHR_MERGE:          0
cpu0->cpu0_ITLB PREFETCH     ACCESS:          0 HIT:          0 MISS:          0 MSHR_MERGE:          0
cpu0->cpu0_ITLB WRITE        ACCESS:          0 HIT:          0 MISS:          0 MSHR_MERGE:          0
cpu0->cpu0_ITLB TRANSLATION  ACCESS:          0 HIT:          0 MISS:          0 MSHR_MERGE:          0
cpu0->cpu0_ITLB PREFETCH REQUESTED:          0 ISSUED:          0 USEFUL:          0 USELESS:          0
cpu0->cpu0_ITLB AVERAGE MISS LATENCY: 3.902 cycles
cpu0_ITLB COHERENCE INVALIDATIONS:          0
cpu0_ITLB COHERENCE WRITE-HIT OTHER-SHARER EVENTS:          0
cpu0->cpu0_DTLB TOTAL        ACCESS:   70443709 HIT:   70257727 MISS:     185982 MSHR_MERGE:      41535
cpu0->cpu0_DTLB LOAD         ACCESS:   70443709 HIT:   70257727 MISS:     185982 MSHR_MERGE:      41535
cpu0->cpu0_DTLB RFO          ACCESS:          0 HIT:          0 MISS:          0 MSHR_MERGE:          0
cpu0->cpu0_DTLB PREFETCH     ACCESS:          0 HIT:          0 MISS:          0 MSHR_MERGE:          0
cpu0->cpu0_DTLB WRITE        ACCESS:          0 HIT:          0 MISS:          0 MSHR_MERGE:          0
cpu0->cpu0_DTLB TRANSLATION  ACCESS:          0 HIT:          0 MISS:          0 MSHR_MERGE:          0
cpu0->cpu0_DTLB PREFETCH REQUESTED:          0 ISSUED:          0 USEFUL:          0 USELESS:          0
cpu0->cpu0_DTLB AVERAGE MISS LATENCY: 4 cycles
cpu0_DTLB COHERENCE INVALIDATIONS:          0
cpu0_DTLB COHERENCE WRITE-HIT OTHER-SHARER EVENTS:          0
cpu0->LLC TOTAL        ACCESS:    4716369 HIT:    2525496 MISS:    2190873 MSHR_MERGE:          4
cpu0->LLC LOAD         ACCESS:     535602 HIT:      65955 MISS:     469647 MSHR_MERGE:          0
cpu0->LLC RFO          ACCESS:    2079479 HIT:     359663 MISS:    1719816 MSHR_MERGE:          4
cpu0->LLC PREFETCH     ACCESS:          0 HIT:          0 MISS:          0 MSHR_MERGE:          0
cpu0->LLC WRITE        ACCESS:    2101288 HIT:    2099878 MISS:       1410 MSHR_MERGE:          0
cpu0->LLC TRANSLATION  ACCESS:          0 HIT:          0 MISS:          0 MSHR_MERGE:          0
cpu0->LLC PREFETCH REQUESTED:          0 ISSUED:          0 USEFUL:          0 USELESS:          0
cpu0->LLC AVERAGE MISS LATENCY: 398.7 cycles
cpu1->LLC TOTAL        ACCESS:     969653 HIT:      71812 MISS:     897841 MSHR_MERGE:          2
cpu1->LLC LOAD         ACCESS:     775895 HIT:      70560 MISS:     705335 MSHR_MERGE:          2
cpu1->LLC RFO          ACCESS:          0 HIT:          0 MISS:          0 MSHR_MERGE:          0
cpu1->LLC PREFETCH     ACCESS:          0 HIT:          0 MISS:          0 MSHR_MERGE:          0
cpu1->LLC WRITE        ACCESS:          0 HIT:          0 MISS:          0 MSHR_MERGE:          0
cpu1->LLC TRANSLATION  ACCESS:     193758 HIT:       1252 MISS:     192506 MSHR_MERGE:          0
cpu1->LLC PREFETCH REQUESTED:          0 ISSUED:          0 USEFUL:          0 USELESS:          0
cpu1->LLC AVERAGE MISS LATENCY: 972.9 cycles
LLC COHERENCE INVALIDATIONS:      50270
LLC COHERENCE WRITE-HIT OTHER-SHARER EVENTS:      50270

DRAM Statistics

Channel 0 RQ ROW_BUFFER_HIT:     135284
  ROW_BUFFER_MISS:    2947508
  AVG DBUS CONGESTED CYCLE: 7.377
Channel 0 WQ ROW_BUFFER_HIT:     292659
  ROW_BUFFER_MISS:    1449114
  FULL:          0
Channel 0 REFRESHES ISSUED:      16361

VMEM ALIASED FILLS (cross-CPU shared-page hits): 12914
