[VMEM] WARNING: physical memory size is smaller than virtual memory size.

*** ChampSim Multicore Out-of-Order Simulator ***
Warmup Instructions: 50000000
Simulation Instructions: 100000000
Number of CPUs: 4
Page size: 4096

Off-chip DRAM Size: 16 GiB Channels: 1 Width: 64-bit Data Rate: 3205 MT/s
*** Reached end of trace: (2, "traces/canneal_big2.champsimtrace")
*** Reached end of trace: (3, "traces/canneal_big3.champsimtrace")
*** Reached end of trace: (0, "traces/canneal_big0.champsimtrace")
*** Reached end of trace: (2, "traces/canneal_big2.champsimtrace")
*** Reached end of trace: (3, "traces/canneal_big3.champsimtrace")
Heartbeat CPU 2 instructions: 10000001 cycles: 2504204 heartbeat IPC: 3.993 cumulative IPC: 3.993 (Simulation time: 00 hr 05 min 13 sec)
Heartbeat CPU 3 instructions: 10000001 cycles: 2504251 heartbeat IPC: 3.993 cumulative IPC: 3.993 (Simulation time: 00 hr 05 min 13 sec)
*** Reached end of trace: (2, "traces/canneal_big2.champsimtrace")
*** Reached end of trace: (3, "traces/canneal_big3.champsimtrace")
*** Reached end of trace: (0, "traces/canneal_big0.champsimtrace")
Heartbeat CPU 0 instructions: 10000003 cycles: 4037082 heartbeat IPC: 2.477 cumulative IPC: 2.477 (Simulation time: 00 hr 08 min 27 sec)
*** Reached end of trace: (1, "traces/canneal_big1.champsimtrace")
*** Reached end of trace: (2, "traces/canneal_big2.champsimtrace")
*** Reached end of trace: (3, "traces/canneal_big3.champsimtrace")
Heartbeat CPU 2 instructions: 20000001 cycles: 5004204 heartbeat IPC: 4 cumulative IPC: 3.997 (Simulation time: 00 hr 10 min 35 sec)
Heartbeat CPU 3 instructions: 20000001 cycles: 5004251 heartbeat IPC: 4 cumulative IPC: 3.997 (Simulation time: 00 hr 10 min 35 sec)
*** Reached end of trace: (0, "traces/canneal_big0.champsimtrace")
*** Reached end of trace: (2, "traces/canneal_big2.champsimtrace")
*** Reached end of trace: (3, "traces/canneal_big3.champsimtrace")
*** Reached end of trace: (2, "traces/canneal_big2.champsimtrace")
*** Reached end of trace: (3, "traces/canneal_big3.champsimtrace")
Heartbeat CPU 2 instructions: 30000001 cycles: 7504204 heartbeat IPC: 4 cumulative IPC: 3.998 (Simulation time: 00 hr 15 min 56 sec)
Heartbeat CPU 3 instructions: 30000001 cycles: 7504251 heartbeat IPC: 4 cumulative IPC: 3.998 (Simulation time: 00 hr 15 min 56 sec)
*** Reached end of trace: (1, "traces/canneal_big1.champsimtrace")
Heartbeat CPU 1 instructions: 10000002 cycles: 7814868 heartbeat IPC: 1.28 cumulative IPC: 1.28 (Simulation time: 00 hr 16 min 34 sec)
*** Reached end of trace: (0, "traces/canneal_big0.champsimtrace")
Heartbeat CPU 0 instructions: 20000006 cycles: 7886853 heartbeat IPC: 2.598 cumulative IPC: 2.536 (Simulation time: 00 hr 16 min 43 sec)
*** Reached end of trace: (2, "traces/canneal_big2.champsimtrace")
*** Reached end of trace: (3, "traces/canneal_big3.champsimtrace")
*** Reached end of trace: (0, "traces/canneal_big0.champsimtrace")
*** Reached end of trace: (2, "traces/canneal_big2.champsimtrace")
*** Reached end of trace: (3, "traces/canneal_big3.champsimtrace")
Heartbeat CPU 2 instructions: 40000001 cycles: 10004204 heartbeat IPC: 4 cumulative IPC: 3.998 (Simulation time: 00 hr 21 min 21 sec)
Heartbeat CPU 3 instructions: 40000001 cycles: 10004251 heartbeat IPC: 4 cumulative IPC: 3.998 (Simulation time: 00 hr 21 min 21 sec)
*** Reached end of trace: (1, "traces/canneal_big1.champsimtrace")
*** Reached end of trace: (2, "traces/canneal_big2.champsimtrace")
*** Reached end of trace: (3, "traces/canneal_big3.champsimtrace")
*** Reached end of trace: (0, "traces/canneal_big0.champsimtrace")
Heartbeat CPU 0 instructions: 30000009 cycles: 11736544 heartbeat IPC: 2.598 cumulative IPC: 2.556 (Simulation time: 00 hr 25 min 05 sec)
*** Reached end of trace: (2, "traces/canneal_big2.champsimtrace")
*** Reached end of trace: (3, "traces/canneal_big3.champsimtrace")
Heartbeat CPU 2 instructions: 50000001 cycles: 12504204 heartbeat IPC: 4 cumulative IPC: 3.999 (Simulation time: 00 hr 26 min 49 sec)
Warmup finished CPU 2 instructions: 50000001 cycles: 12504204 cumulative IPC: 3.999 (Simulation time: 00 hr 26 min 49 sec)
Heartbeat CPU 3 instructions: 50000001 cycles: 12504251 heartbeat IPC: 4 cumulative IPC: 3.999 (Simulation time: 00 hr 26 min 49 sec)
Warmup finished CPU 3 instructions: 50000001 cycles: 12504251 cumulative IPC: 3.999 (Simulation time: 00 hr 26 min 49 sec)
*** Reached end of trace: (1, "traces/canneal_big1.champsimtrace")
Heartbeat CPU 1 instructions: 20000004 cycles: 13495579 heartbeat IPC: 1.76 cumulative IPC: 1.482 (Simulation time: 00 hr 29 min 00 sec)
*** Reached end of trace: (0, "traces/canneal_big0.champsimtrace")
*** Reached end of trace: (2, "traces/canneal_big2.champsimtrace")
*** Reached end of trace: (3, "traces/canneal_big3.champsimtrace")
*** Reached end of trace: (2, "traces/canneal_big2.champsimtrace")
*** Reached end of trace: (3, "traces/canneal_big3.champsimtrace")
Heartbeat CPU 2 instructions: 60000001 cycles: 15004204 heartbeat IPC: 4 cumulative IPC: 3.999 (Simulation time: 00 hr 32 min 16 sec)
Heartbeat CPU 3 instructions: 60000001 cycles: 15004251 heartbeat IPC: 4 cumulative IPC: 3.999 (Simulation time: 00 hr 32 min 16 sec)
*** Reached end of trace: (0, "traces/canneal_big0.champsimtrace")
Heartbeat CPU 0 instructions: 40000012 cycles: 15586235 heartbeat IPC: 2.598 cumulative IPC: 2.566 (Simulation time: 00 hr 33 min 31 sec)
*** Reached end of trace: (2, "traces/canneal_big2.champsimtrace")
*** Reached end of trace: (3, "traces/canneal_big3.champsimtrace")
*** Reached end of trace: (1, "traces/canneal_big1.champsimtrace")
*** Reached end of trace: (2, "traces/canneal_big2.champsimtrace")
*** Reached end of trace: (3, "traces/canneal_big3.champsimtrace")
Heartbeat CPU 2 instructions: 70000001 cycles: 17504204 heartbeat IPC: 4 cumulative IPC: 3.999 (Simulation time: 00 hr 37 min 40 sec)
Heartbeat CPU 3 instructions: 70000001 cycles: 17504251 heartbeat IPC: 4 cumulative IPC: 3.999 (Simulation time: 00 hr 37 min 40 sec)
*** Reached end of trace: (0, "traces/canneal_big0.champsimtrace")
*** Reached end of trace: (2, "traces/canneal_big2.champsimtrace")
*** Reached end of trace: (3, "traces/canneal_big3.champsimtrace")
*** Reached end of trace: (1, "traces/canneal_big1.champsimtrace")
Heartbeat CPU 1 instructions: 30000004 cycles: 19176380 heartbeat IPC: 1.76 cumulative IPC: 1.564 (Simulation time: 00 hr 41 min 22 sec)
*** Reached end of trace: (0, "traces/canneal_big0.champsimtrace")
Warmup finished CPU 0 instructions: 50000000 cycles: 19435923 cumulative IPC: 2.573 (Simulation time: 00 hr 41 min 56 sec)
Heartbeat CPU 0 instructions: 50000015 cycles: 19435926 heartbeat IPC: 2.598 cumulative IPC: 2.573 (Simulation time: 00 hr 41 min 56 sec)
*** Reached end of trace: (2, "traces/canneal_big2.champsimtrace")
*** Reached end of trace: (3, "traces/canneal_big3.champsimtrace")
Heartbeat CPU 2 instructions: 80000001 cycles: 20004204 heartbeat IPC: 4 cumulative IPC: 3.999 (Simulation time: 00 hr 43 min 09 sec)
Heartbeat CPU 3 instructions: 80000001 cycles: 20004251 heartbeat IPC: 4 cumulative IPC: 3.999 (Simulation time: 00 hr 43 min 09 sec)
*** Reached end of trace: (2, "traces/canneal_big2.champsimtrace")
*** Reached end of trace: (3, "traces/canneal_big3.champsimtrace")
*** Reached end of trace: (0, "traces/canneal_big0.champsimtrace")
*** Reached end of trace: (1, "traces/canneal_big1.champsimtrace")
*** Reached end of trace: (2, "traces/canneal_big2.champsimtrace")
*** Reached end of trace: (3, "traces/canneal_big3.champsimtrace")
Heartbeat CPU 2 instructions: 90000001 cycles: 22504204 heartbeat IPC: 4 cumulative IPC: 3.999 (Simulation time: 00 hr 48 min 34 sec)
Heartbeat CPU 3 instructions: 90000001 cycles: 22504251 heartbeat IPC: 4 cumulative IPC: 3.999 (Simulation time: 00 hr 48 min 34 sec)
*** Reached end of trace: (0, "traces/canneal_big0.champsimtrace")
Heartbeat CPU 0 instructions: 60000018 cycles: 23285617 heartbeat IPC: 2.598 cumulative IPC: 2.577 (Simulation time: 00 hr 50 min 16 sec)
*** Reached end of trace: (2, "traces/canneal_big2.champsimtrace")
*** Reached end of trace: (3, "traces/canneal_big3.champsimtrace")
*** Reached end of trace: (1, "traces/canneal_big1.champsimtrace")
Heartbeat CPU 1 instructions: 40000006 cycles: 24857165 heartbeat IPC: 1.76 cumulative IPC: 1.609 (Simulation time: 00 hr 53 min 40 sec)
*** Reached end of trace: (2, "traces/canneal_big2.champsimtrace")
*** Reached end of trace: (3, "traces/canneal_big3.champsimtrace")
Heartbeat CPU 2 instructions: 100000001 cycles: 25004204 heartbeat IPC: 4 cumulative IPC: 3.999 (Simulation time: 00 hr 53 min 59 sec)
Heartbeat CPU 3 instructions: 100000001 cycles: 25004251 heartbeat IPC: 4 cumulative IPC: 3.999 (Simulation time: 00 hr 53 min 59 sec)
*** Reached end of trace: (0, "traces/canneal_big0.champsimtrace")
*** Reached end of trace: (2, "traces/canneal_big2.champsimtrace")
*** Reached end of trace: (3, "traces/canneal_big3.champsimtrace")
*** Reached end of trace: (0, "traces/canneal_big0.champsimtrace")
Heartbeat CPU 0 instructions: 70000021 cycles: 27135308 heartbeat IPC: 2.598 cumulative IPC: 2.58 (Simulation time: 00 hr 58 min 35 sec)
*** Reached end of trace: (2, "traces/canneal_big2.champsimtrace")
*** Reached end of trace: (3, "traces/canneal_big3.champsimtrace")
Heartbeat CPU 2 instructions: 110000001 cycles: 27504204 heartbeat IPC: 4 cumulative IPC: 3.999 (Simulation time: 00 hr 59 min 27 sec)
Heartbeat CPU 3 instructions: 110000001 cycles: 27504251 heartbeat IPC: 4 cumulative IPC: 3.999 (Simulation time: 00 hr 59 min 27 sec)
*** Reached end of trace: (1, "traces/canneal_big1.champsimtrace")
*** Reached end of trace: (2, "traces/canneal_big2.champsimtrace")
*** Reached end of trace: (3, "traces/canneal_big3.champsimtrace")
*** Reached end of trace: (0, "traces/canneal_big0.champsimtrace")
*** Reached end of trace: (2, "traces/canneal_big2.champsimtrace")
*** Reached end of trace: (3, "traces/canneal_big3.champsimtrace")
Heartbeat CPU 2 instructions: 120000001 cycles: 30004204 heartbeat IPC: 4 cumulative IPC: 3.999 (Simulation time: 01 hr 04 min 46 sec)
Heartbeat CPU 3 instructions: 120000001 cycles: 30004251 heartbeat IPC: 4 cumulative IPC: 3.999 (Simulation time: 01 hr 04 min 46 sec)
*** Reached end of trace: (1, "traces/canneal_big1.champsimtrace")
Warmup finished CPU 1 instructions: 50000000 cycles: 30538060 cumulative IPC: 1.637 (Simulation time: 01 hr 05 min 54 sec)
Warmup complete CPU 3 instructions: 122135237 cycles: 30538060 cumulative IPC: 3.999 (Simulation time: 01 hr 05 min 54 sec)
Warmup complete CPU 2 instructions: 122135425 cycles: 30538060 cumulative IPC: 3.999 (Simulation time: 01 hr 05 min 54 sec)
Warmup complete CPU 1 instructions: 50000000 cycles: 30538060 cumulative IPC: 1.637 (Simulation time: 01 hr 05 min 54 sec)
Warmup complete CPU 0 instructions: 78920339 cycles: 30538060 cumulative IPC: 2.584 (Simulation time: 01 hr 05 min 54 sec)
Heartbeat CPU 1 instructions: 50000008 cycles: 30538412 heartbeat IPC: 1.76 cumulative IPC: 0.02273 (Simulation time: 01 hr 05 min 54 sec)
*** Reached end of trace: (0, "traces/canneal_big0.champsimtrace")
Heartbeat CPU 0 instructions: 80000024 cycles: 30954274 heartbeat IPC: 2.619 cumulative IPC: 2.594 (Simulation time: 01 hr 06 min 47 sec)
*** Reached end of trace: (2, "traces/canneal_big2.champsimtrace")
*** Reached end of trace: (3, "traces/canneal_big3.champsimtrace")
*** Reached end of trace: (2, "traces/canneal_big2.champsimtrace")
*** Reached end of trace: (3, "traces/canneal_big3.champsimtrace")
Heartbeat CPU 2 instructions: 130000001 cycles: 32504204 heartbeat IPC: 4 cumulative IPC: 4 (Simulation time: 01 hr 10 min 04 sec)
Heartbeat CPU 3 instructions: 130000001 cycles: 32504251 heartbeat IPC: 4 cumulative IPC: 4 (Simulation time: 01 hr 10 min 04 sec)
*** Reached end of trace: (0, "traces/canneal_big0.champsimtrace")
*** Reached end of trace: (2, "traces/canneal_big2.champsimtrace")
*** Reached end of trace: (3, "traces/canneal_big3.champsimtrace")
*** Reached end of trace: (2, "traces/canneal_big2.champsimtrace")
*** Reached end of trace: (3, "traces/canneal_big3.champsimtrace")
Heartbeat CPU 2 instructions: 140000001 cycles: 35004204 heartbeat IPC: 4 cumulative IPC: 4 (Simulation time: 01 hr 15 min 21 sec)
Heartbeat CPU 3 instructions: 140000001 cycles: 35004251 heartbeat IPC: 4 cumulative IPC: 4 (Simulation time: 01 hr 15 min 21 sec)
*** Reached end of trace: (0, "traces/canneal_big0.champsimtrace")
Heartbeat CPU 0 instructions: 90000027 cycles: 35611827 heartbeat IPC: 2.147 cumulative IPC: 2.184 (Simulation time: 01 hr 16 min 37 sec)
*** Reached end of trace: (2, "traces/canneal_big2.champsimtrace")
*** Reached end of trace: (3, "traces/canneal_big3.champsimtrace")
*** Reached end of trace: (2, "traces/canneal_big2.champsimtrace")
*** Reached end of trace: (3, "traces/canneal_big3.champsimtrace")
Heartbeat CPU 2 instructions: 150000001 cycles: 37504204 heartbeat IPC: 4 cumulative IPC: 4 (Simulation time: 01 hr 20 min 37 sec)
Heartbeat CPU 3 instructions: 150000001 cycles: 37504251 heartbeat IPC: 4 cumulative IPC: 4 (Simulation time: 01 hr 20 min 37 sec)
*** Reached end of trace: (0, "traces/canneal_big0.champsimtrace")
*** Reached end of trace: (2, "traces/canneal_big2.champsimtrace")
*** Reached end of trace: (3, "traces/canneal_big3.champsimtrace")
*** Reached end of trace: (2, "traces/canneal_big2.champsimtrace")
*** Reached end of trace: (3, "traces/canneal_big3.champsimtrace")
Heartbeat CPU 2 instructions: 160000001 cycles: 40004204 heartbeat IPC: 4 cumulative IPC: 4 (Simulation time: 01 hr 26 min 01 sec)
Heartbeat CPU 3 instructions: 160000001 cycles: 40004251 heartbeat IPC: 4 cumulative IPC: 4 (Simulation time: 01 hr 26 min 01 sec)
*** Reached end of trace: (0, "traces/canneal_big0.champsimtrace")
Heartbeat CPU 0 instructions: 100000030 cycles: 40266771 heartbeat IPC: 2.148 cumulative IPC: 2.167 (Simulation time: 01 hr 26 min 36 sec)
*** Reached end of trace: (2, "traces/canneal_big2.champsimtrace")
*** Reached end of trace: (3, "traces/canneal_big3.champsimtrace")
*** Reached end of trace: (2, "traces/canneal_big2.champsimtrace")
*** Reached end of trace: (3, "traces/canneal_big3.champsimtrace")
Heartbeat CPU 2 instructions: 170000001 cycles: 42504204 heartbeat IPC: 4 cumulative IPC: 4 (Simulation time: 01 hr 31 min 21 sec)
Heartbeat CPU 3 instructions: 170000001 cycles: 42504251 heartbeat IPC: 4 cumulative IPC: 4 (Simulation time: 01 hr 31 min 21 sec)
*** Reached end of trace: (0, "traces/canneal_big0.champsimtrace")
*** Reached end of trace: (2, "traces/canneal_big2.champsimtrace")
*** Reached end of trace: (3, "traces/canneal_big3.champsimtrace")
*** Reached end of trace: (0, "traces/canneal_big0.champsimtrace")
Heartbeat CPU 0 instructions: 110000033 cycles: 44897739 heartbeat IPC: 2.159 cumulative IPC: 2.164 (Simulation time: 01 hr 36 min 18 sec)
*** Reached end of trace: (2, "traces/canneal_big2.champsimtrace")
*** Reached end of trace: (3, "traces/canneal_big3.champsimtrace")
Heartbeat CPU 2 instructions: 180000001 cycles: 45004204 heartbeat IPC: 4 cumulative IPC: 4 (Simulation time: 01 hr 36 min 32 sec)
Heartbeat CPU 3 instructions: 180000001 cycles: 45004251 heartbeat IPC: 4 cumulative IPC: 4 (Simulation time: 01 hr 36 min 32 sec)
*** Reached end of trace: (2, "traces/canneal_big2.champsimtrace")
*** Reached end of trace: (3, "traces/canneal_big3.champsimtrace")
*** Reached end of trace: (0, "traces/canneal_big0.champsimtrace")
*** Reached end of trace: (2, "traces/canneal_big2.champsimtrace")
*** Reached end of trace: (3, "traces/canneal_big3.champsimtrace")
Heartbeat CPU 2 instructions: 190000001 cycles: 47504204 heartbeat IPC: 4 cumulative IPC: 4 (Simulation time: 01 hr 41 min 57 sec)
Heartbeat CPU 3 instructions: 190000001 cycles: 47504251 heartbeat IPC: 4 cumulative IPC: 4 (Simulation time: 01 hr 41 min 57 sec)
*** Reached end of trace: (2, "traces/canneal_big2.champsimtrace")
*** Reached end of trace: (3, "traces/canneal_big3.champsimtrace")
*** Reached end of trace: (0, "traces/canneal_big0.champsimtrace")
Heartbeat CPU 0 instructions: 120000036 cycles: 49519898 heartbeat IPC: 2.163 cumulative IPC: 2.164 (Simulation time: 01 hr 46 min 10 sec)
*** Reached end of trace: (1, "traces/canneal_big1.champsimtrace")
*** Reached end of trace: (2, "traces/canneal_big2.champsimtrace")
*** Reached end of trace: (3, "traces/canneal_big3.champsimtrace")
Heartbeat CPU 2 instructions: 200000001 cycles: 50004204 heartbeat IPC: 4 cumulative IPC: 4 (Simulation time: 01 hr 47 min 10 sec)
Heartbeat CPU 3 instructions: 200000001 cycles: 50004251 heartbeat IPC: 4 cumulative IPC: 4 (Simulation time: 01 hr 47 min 10 sec)
*** Reached end of trace: (2, "traces/canneal_big2.champsimtrace")
*** Reached end of trace: (3, "traces/canneal_big3.champsimtrace")
*** Reached end of trace: (0, "traces/canneal_big0.champsimtrace")
*** Reached end of trace: (2, "traces/canneal_big2.champsimtrace")
*** Reached end of trace: (3, "traces/canneal_big3.champsimtrace")
Heartbeat CPU 2 instructions: 210000001 cycles: 52504204 heartbeat IPC: 4 cumulative IPC: 4 (Simulation time: 01 hr 52 min 17 sec)
Heartbeat CPU 3 instructions: 210000001 cycles: 52504251 heartbeat IPC: 4 cumulative IPC: 4 (Simulation time: 01 hr 52 min 17 sec)
*** Reached end of trace: (2, "traces/canneal_big2.champsimtrace")
*** Reached end of trace: (3, "traces/canneal_big3.champsimtrace")
*** Reached end of trace: (0, "traces/canneal_big0.champsimtrace")
Heartbeat CPU 0 instructions: 130000036 cycles: 54194032 heartbeat IPC: 2.139 cumulative IPC: 2.159 (Simulation time: 01 hr 55 min 42 sec)
*** Reached end of trace: (2, "traces/canneal_big2.champsimtrace")
*** Reached end of trace: (3, "traces/canneal_big3.champsimtrace")
Heartbeat CPU 2 instructions: 220000001 cycles: 55004204 heartbeat IPC: 4 cumulative IPC: 4 (Simulation time: 01 hr 57 min 16 sec)
Heartbeat CPU 3 instructions: 220000001 cycles: 55004251 heartbeat IPC: 4 cumulative IPC: 4 (Simulation time: 01 hr 57 min 16 sec)
Simulation finished CPU 3 instructions: 100000000 cycles: 25000000 cumulative IPC: 4 (Simulation time: 01 hr 58 min 18 sec)
Simulation finished CPU 2 instructions: 100000000 cycles: 25000000 cumulative IPC: 4 (Simulation time: 01 hr 58 min 18 sec)
*** Reached end of trace: (2, "traces/canneal_big2.champsimtrace")
*** Reached end of trace: (3, "traces/canneal_big3.champsimtrace")
*** Reached end of trace: (0, "traces/canneal_big0.champsimtrace")
*** Reached end of trace: (2, "traces/canneal_big2.champsimtrace")
*** Reached end of trace: (3, "traces/canneal_big3.champsimtrace")
Heartbeat CPU 2 instructions: 230000001 cycles: 57504204 heartbeat IPC: 4 cumulative IPC: 4 (Simulation time: 02 hr 02 min 12 sec)
Heartbeat CPU 3 instructions: 230000001 cycles: 57504251 heartbeat IPC: 4 cumulative IPC: 4 (Simulation time: 02 hr 02 min 12 sec)
*** Reached end of trace: (2, "traces/canneal_big2.champsimtrace")
*** Reached end of trace: (3, "traces/canneal_big3.champsimtrace")
*** Reached end of trace: (0, "traces/canneal_big0.champsimtrace")
Heartbeat CPU 0 instructions: 140000037 cycles: 58832004 heartbeat IPC: 2.156 cumulative IPC: 2.159 (Simulation time: 02 hr 04 min 50 sec)
*** Reached end of trace: (2, "traces/canneal_big2.champsimtrace")
*** Reached end of trace: (3, "traces/canneal_big3.champsimtrace")
Heartbeat CPU 2 instructions: 240000001 cycles: 60004204 heartbeat IPC: 4 cumulative IPC: 4 (Simulation time: 02 hr 07 min 12 sec)
Heartbeat CPU 3 instructions: 240000001 cycles: 60004251 heartbeat IPC: 4 cumulative IPC: 4 (Simulation time: 02 hr 07 min 12 sec)
*** Reached end of trace: (0, "traces/canneal_big0.champsimtrace")
*** Reached end of trace: (2, "traces/canneal_big2.champsimtrace")
*** Reached end of trace: (3, "traces/canneal_big3.champsimtrace")
*** Reached end of trace: (2, "traces/canneal_big2.champsimtrace")
*** Reached end of trace: (3, "traces/canneal_big3.champsimtrace")
Heartbeat CPU 2 instructions: 250000001 cycles: 62504204 heartbeat IPC: 4 cumulative IPC: 4 (Simulation time: 02 hr 12 min 08 sec)
Heartbeat CPU 3 instructions: 250000001 cycles: 62504251 heartbeat IPC: 4 cumulative IPC: 4 (Simulation time: 02 hr 12 min 08 sec)
*** Reached end of trace: (0, "traces/canneal_big0.champsimtrace")
Heartbeat CPU 0 instructions: 150000037 cycles: 63468905 heartbeat IPC: 2.157 cumulative IPC: 2.158 (Simulation time: 02 hr 14 min 04 sec)
*** Reached end of trace: (2, "traces/canneal_big2.champsimtrace")
*** Reached end of trace: (3, "traces/canneal_big3.champsimtrace")
*** Reached end of trace: (2, "traces/canneal_big2.champsimtrace")
*** Reached end of trace: (3, "traces/canneal_big3.champsimtrace")
Heartbeat CPU 2 instructions: 260000001 cycles: 65004204 heartbeat IPC: 4 cumulative IPC: 4 (Simulation time: 02 hr 17 min 06 sec)
Heartbeat CPU 3 instructions: 260000001 cycles: 65004251 heartbeat IPC: 4 cumulative IPC: 4 (Simulation time: 02 hr 17 min 06 sec)
*** Reached end of trace: (0, "traces/canneal_big0.champsimtrace")
*** Reached end of trace: (2, "traces/canneal_big2.champsimtrace")
*** Reached end of trace: (3, "traces/canneal_big3.champsimtrace")
*** Reached end of trace: (2, "traces/canneal_big2.champsimtrace")
*** Reached end of trace: (3, "traces/canneal_big3.champsimtrace")
Heartbeat CPU 2 instructions: 270000001 cycles: 67504204 heartbeat IPC: 4 cumulative IPC: 4 (Simulation time: 02 hr 22 min 05 sec)
Heartbeat CPU 3 instructions: 270000001 cycles: 67504251 heartbeat IPC: 4 cumulative IPC: 4 (Simulation time: 02 hr 22 min 05 sec)
*** Reached end of trace: (0, "traces/canneal_big0.champsimtrace")
Heartbeat CPU 0 instructions: 160000040 cycles: 68098286 heartbeat IPC: 2.16 cumulative IPC: 2.159 (Simulation time: 02 hr 23 min 16 sec)
*** Reached end of trace: (2, "traces/canneal_big2.champsimtrace")
*** Reached end of trace: (3, "traces/canneal_big3.champsimtrace")
*** Reached end of trace: (1, "traces/canneal_big1.champsimtrace")
Heartbeat CPU 1 instructions: 60000010 cycles: 69654548 heartbeat IPC: 0.2556 cumulative IPC: 0.2556 (Simulation time: 02 hr 26 min 23 sec)
*** Reached end of trace: (2, "traces/canneal_big2.champsimtrace")
*** Reached end of trace: (3, "traces/canneal_big3.champsimtrace")
Heartbeat CPU 2 instructions: 280000001 cycles: 70004204 heartbeat IPC: 4 cumulative IPC: 4 (Simulation time: 02 hr 27 min 06 sec)
Heartbeat CPU 3 instructions: 280000001 cycles: 70004251 heartbeat IPC: 4 cumulative IPC: 4 (Simulation time: 02 hr 27 min 06 sec)
*** Reached end of trace: (0, "traces/canneal_big0.champsimtrace")
*** Reached end of trace: (2, "traces/canneal_big2.champsimtrace")
*** Reached end of trace: (3, "traces/canneal_big3.champsimtrace")
*** Reached end of trace: (2, "traces/canneal_big2.champsimtrace")
*** Reached end of trace: (3, "traces/canneal_big3.champsimtrace")
Heartbeat CPU 2 instructions: 290000001 cycles: 72504204 heartbeat IPC: 4 cumulative IPC: 4 (Simulation time: 02 hr 32 min 08 sec)
Heartbeat CPU 3 instructions: 290000001 cycles: 72504251 heartbeat IPC: 4 cumulative IPC: 4 (Simulation time: 02 hr 32 min 08 sec)
*** Reached end of trace: (0, "traces/canneal_big0.champsimtrace")
Heartbeat CPU 0 instructions: 170000043 cycles: 72754672 heartbeat IPC: 2.148 cumulative IPC: 2.157 (Simulation time: 02 hr 32 min 38 sec)
*** Reached end of trace: (2, "traces/canneal_big2.champsimtrace")
*** Reached end of trace: (3, "traces/canneal_big3.champsimtrace")
*** Reached end of trace: (2, "traces/canneal_big2.champsimtrace")
*** Reached end of trace: (3, "traces/canneal_big3.champsimtrace")
Heartbeat CPU 2 instructions: 300000001 cycles: 75004204 heartbeat IPC: 4 cumulative IPC: 4 (Simulation time: 02 hr 37 min 06 sec)
Heartbeat CPU 3 instructions: 300000001 cycles: 75004251 heartbeat IPC: 4 cumulative IPC: 4 (Simulation time: 02 hr 37 min 06 sec)
*** Reached end of trace: (0, "traces/canneal_big0.champsimtrace")
*** Reached end of trace: (2, "traces/canneal_big2.champsimtrace")
*** Reached end of trace: (3, "traces/canneal_big3.champsimtrace")
Simulation finished CPU 0 instructions: 100000000 cycles: 46447501 cumulative IPC: 2.153 (Simulation time: 02 hr 40 min 37 sec)
*** Reached end of trace: (0, "traces/canneal_big0.champsimtrace")
Heartbeat CPU 0 instructions: 180000044 cycles: 77398272 heartbeat IPC: 2.154 cumulative IPC: 2.157 (Simulation time: 02 hr 41 min 21 sec)
*** Reached end of trace: (2, "traces/canneal_big2.champsimtrace")
*** Reached end of trace: (3, "traces/canneal_big3.champsimtrace")
Heartbeat CPU 2 instructions: 310000001 cycles: 77504204 heartbeat IPC: 4 cumulative IPC: 4 (Simulation time: 02 hr 41 min 33 sec)
Heartbeat CPU 3 instructions: 310000001 cycles: 77504251 heartbeat IPC: 4 cumulative IPC: 4 (Simulation time: 02 hr 41 min 33 sec)
*** Reached end of trace: (2, "traces/canneal_big2.champsimtrace")
*** Reached end of trace: (3, "traces/canneal_big3.champsimtrace")
*** Reached end of trace: (0, "traces/canneal_big0.champsimtrace")
*** Reached end of trace: (2, "traces/canneal_big2.champsimtrace")
*** Reached end of trace: (3, "traces/canneal_big3.champsimtrace")
Heartbeat CPU 2 instructions: 320000001 cycles: 80004204 heartbeat IPC: 4 cumulative IPC: 4 (Simulation time: 02 hr 46 min 00 sec)
Heartbeat CPU 3 instructions: 320000001 cycles: 80004251 heartbeat IPC: 4 cumulative IPC: 4 (Simulation time: 02 hr 46 min 00 sec)
*** Reached end of trace: (2, "traces/canneal_big2.champsimtrace")
*** Reached end of trace: (3, "traces/canneal_big3.champsimtrace")
*** Reached end of trace: (0, "traces/canneal_big0.champsimtrace")
Heartbeat CPU 0 instructions: 190000044 cycles: 82046998 heartbeat IPC: 2.151 cumulative IPC: 2.157 (Simulation time: 02 hr 50 min 00 sec)
*** Reached end of trace: (2, "traces/canneal_big2.champsimtrace")
*** Reached end of trace: (3, "traces/canneal_big3.champsimtrace")
Heartbeat CPU 2 instructions: 330000001 cycles: 82504204 heartbeat IPC: 4 cumulative IPC: 4 (Simulation time: 02 hr 50 min 56 sec)
Heartbeat CPU 3 instructions: 330000001 cycles: 82504251 heartbeat IPC: 4 cumulative IPC: 4 (Simulation time: 02 hr 50 min 56 sec)
*** Reached end of trace: (2, "traces/canneal_big2.champsimtrace")
*** Reached end of trace: (3, "traces/canneal_big3.champsimtrace")
*** Reached end of trace: (0, "traces/canneal_big0.champsimtrace")
*** Reached end of trace: (2, "traces/canneal_big2.champsimtrace")
*** Reached end of trace: (3, "traces/canneal_big3.champsimtrace")
Heartbeat CPU 2 instructions: 340000001 cycles: 85004204 heartbeat IPC: 4 cumulative IPC: 4 (Simulation time: 02 hr 56 min 02 sec)
Heartbeat CPU 3 instructions: 340000001 cycles: 85004251 heartbeat IPC: 4 cumulative IPC: 4 (Simulation time: 02 hr 56 min 02 sec)
*** Reached end of trace: (2, "traces/canneal_big2.champsimtrace")
*** Reached end of trace: (3, "traces/canneal_big3.champsimtrace")
*** Reached end of trace: (0, "traces/canneal_big0.champsimtrace")
Heartbeat CPU 0 instructions: 200000045 cycles: 86671268 heartbeat IPC: 2.163 cumulative IPC: 2.157 (Simulation time: 02 hr 59 min 24 sec)
*** Reached end of trace: (2, "traces/canneal_big2.champsimtrace")
*** Reached end of trace: (3, "traces/canneal_big3.champsimtrace")
Heartbeat CPU 2 instructions: 350000001 cycles: 87504204 heartbeat IPC: 4 cumulative IPC: 4 (Simulation time: 03 hr 01 min 05 sec)
Heartbeat CPU 3 instructions: 350000001 cycles: 87504251 heartbeat IPC: 4 cumulative IPC: 4 (Simulation time: 03 hr 01 min 05 sec)
*** Reached end of trace: (2, "traces/canneal_big2.champsimtrace")
*** Reached end of trace: (3, "traces/canneal_big3.champsimtrace")
*** Reached end of trace: (0, "traces/canneal_big0.champsimtrace")
*** Reached end of trace: (1, "traces/canneal_big1.champsimtrace")
*** Reached end of trace: (2, "traces/canneal_big2.champsimtrace")
*** Reached end of trace: (3, "traces/canneal_big3.champsimtrace")
Heartbeat CPU 2 instructions: 360000001 cycles: 90004204 heartbeat IPC: 4 cumulative IPC: 4 (Simulation time: 03 hr 06 min 13 sec)
Heartbeat CPU 3 instructions: 360000001 cycles: 90004251 heartbeat IPC: 4 cumulative IPC: 4 (Simulation time: 03 hr 06 min 13 sec)
*** Reached end of trace: (2, "traces/canneal_big2.champsimtrace")
*** Reached end of trace: (3, "traces/canneal_big3.champsimtrace")
*** Reached end of trace: (0, "traces/canneal_big0.champsimtrace")
Heartbeat CPU 0 instructions: 210000048 cycles: 91311036 heartbeat IPC: 2.155 cumulative IPC: 2.157 (Simulation time: 03 hr 08 min 50 sec)
*** Reached end of trace: (2, "traces/canneal_big2.champsimtrace")
*** Reached end of trace: (3, "traces/canneal_big3.champsimtrace")
Heartbeat CPU 2 instructions: 370000001 cycles: 92504204 heartbeat IPC: 4 cumulative IPC: 4 (Simulation time: 03 hr 11 min 15 sec)
Heartbeat CPU 3 instructions: 370000001 cycles: 92504251 heartbeat IPC: 4 cumulative IPC: 4 (Simulation time: 03 hr 11 min 15 sec)
*** Reached end of trace: (0, "traces/canneal_big0.champsimtrace")
*** Reached end of trace: (2, "traces/canneal_big2.champsimtrace")
*** Reached end of trace: (3, "traces/canneal_big3.champsimtrace")
*** Reached end of trace: (2, "traces/canneal_big2.champsimtrace")
*** Reached end of trace: (3, "traces/canneal_big3.champsimtrace")
Heartbeat CPU 2 instructions: 380000001 cycles: 95004204 heartbeat IPC: 4 cumulative IPC: 4 (Simulation time: 03 hr 16 min 16 sec)
Heartbeat CPU 3 instructions: 380000001 cycles: 95004251 heartbeat IPC: 4 cumulative IPC: 4 (Simulation time: 03 hr 16 min 16 sec)
*** Reached end of trace: (0, "traces/canneal_big0.champsimtrace")
Heartbeat CPU 0 instructions: 220000051 cycles: 95969762 heartbeat IPC: 2.147 cumulative IPC: 2.156 (Simulation time: 03 hr 18 min 13 sec)
*** Reached end of trace: (2, "traces/canneal_big2.champsimtrace")
*** Reached end of trace: (3, "traces/canneal_big3.champsimtrace")
*** Reached end of trace: (2, "traces/canneal_big2.champsimtrace")
*** Reached end of trace: (3, "traces/canneal_big3.champsimtrace")
Heartbeat CPU 2 instructions: 390000001 cycles: 97504204 heartbeat IPC: 4 cumulative IPC: 4 (Simulation time: 03 hr 21 min 20 sec)
Heartbeat CPU 3 instructions: 390000001 cycles: 97504251 heartbeat IPC: 4 cumulative IPC: 4 (Simulation time: 03 hr 21 min 20 sec)
*** Reached end of trace: (0, "traces/canneal_big0.champsimtrace")
*** Reached end of trace: (2, "traces/canneal_big2.champsimtrace")
*** Reached end of trace: (3, "traces/canneal_big3.champsimtrace")
*** Reached end of trace: (2, "traces/canneal_big2.champsimtrace")
*** Reached end of trace: (3, "traces/canneal_big3.champsimtrace")
Heartbeat CPU 2 instructions: 400000001 cycles: 100004204 heartbeat IPC: 4 cumulative IPC: 4 (Simulation time: 03 hr 26 min 23 sec)
Heartbeat CPU 3 instructions: 400000001 cycles: 100004251 heartbeat IPC: 4 cumulative IPC: 4 (Simulation time: 03 hr 26 min 23 sec)
*** Reached end of trace: (0, "traces/canneal_big0.champsimtrace")
Heartbeat CPU 0 instructions: 230000051 cycles: 100612959 heartbeat IPC: 2.154 cumulative IPC: 2.156 (Simulation time: 03 hr 27 min 32 sec)
*** Reached end of trace: (2, "traces/canneal_big2.champsimtrace")
*** Reached end of trace: (3, "traces/canneal_big3.champsimtrace")
*** Reached end of trace: (2, "traces/canneal_big2.champsimtrace")
*** Reached end of trace: (3, "traces/canneal_big3.champsimtrace")
Heartbeat CPU 2 instructions: 410000001 cycles: 102504204 heartbeat IPC: 4 cumulative IPC: 4 (Simulation time: 03 hr 31 min 02 sec)
Heartbeat CPU 3 instructions: 410000001 cycles: 102504251 heartbeat IPC: 4 cumulative IPC: 4 (Simulation time: 03 hr 31 min 02 sec)
*** Reached end of trace: (0, "traces/canneal_big0.champsimtrace")
*** Reached end of trace: (2, "traces/canneal_big2.champsimtrace")
*** Reached end of trace: (3, "traces/canneal_big3.champsimtrace")
*** Reached end of trace: (2, "traces/canneal_big2.champsimtrace")
*** Reached end of trace: (3, "traces/canneal_big3.champsimtrace")
Heartbeat CPU 2 instructions: 420000001 cycles: 105004204 heartbeat IPC: 4 cumulative IPC: 4 (Simulation time: 03 hr 35 min 35 sec)
Heartbeat CPU 3 instructions: 420000001 cycles: 105004251 heartbeat IPC: 4 cumulative IPC: 4 (Simulation time: 03 hr 35 min 35 sec)
*** Reached end of trace: (0, "traces/canneal_big0.champsimtrace")
Heartbeat CPU 0 instructions: 240000052 cycles: 105240878 heartbeat IPC: 2.161 cumulative IPC: 2.156 (Simulation time: 03 hr 36 min 02 sec)
*** Reached end of trace: (2, "traces/canneal_big2.champsimtrace")
*** Reached end of trace: (3, "traces/canneal_big3.champsimtrace")
*** Reached end of trace: (2, "traces/canneal_big2.champsimtrace")
*** Reached end of trace: (3, "traces/canneal_big3.champsimtrace")
Heartbeat CPU 2 instructions: 430000001 cycles: 107504204 heartbeat IPC: 4 cumulative IPC: 4 (Simulation time: 03 hr 40 min 03 sec)
Heartbeat CPU 3 instructions: 430000001 cycles: 107504251 heartbeat IPC: 4 cumulative IPC: 4 (Simulation time: 03 hr 40 min 03 sec)
*** Reached end of trace: (0, "traces/canneal_big0.champsimtrace")
*** Reached end of trace: (2, "traces/canneal_big2.champsimtrace")
*** Reached end of trace: (3, "traces/canneal_big3.champsimtrace")
*** Reached end of trace: (1, "traces/canneal_big1.champsimtrace")
Heartbeat CPU 1 instructions: 70000012 cycles: 108922869 heartbeat IPC: 0.2547 cumulative IPC: 0.2552 (Simulation time: 03 hr 42 min 41 sec)
*** Reached end of trace: (0, "traces/canneal_big0.champsimtrace")
Heartbeat CPU 0 instructions: 250000052 cycles: 109864462 heartbeat IPC: 2.163 cumulative IPC: 2.157 (Simulation time: 03 hr 44 min 23 sec)
*** Reached end of trace: (2, "traces/canneal_big2.champsimtrace")
*** Reached end of trace: (3, "traces/canneal_big3.champsimtrace")
Heartbeat CPU 2 instructions: 440000001 cycles: 110004204 heartbeat IPC: 4 cumulative IPC: 4 (Simulation time: 03 hr 44 min 39 sec)
Heartbeat CPU 3 instructions: 440000001 cycles: 110004251 heartbeat IPC: 4 cumulative IPC: 4 (Simulation time: 03 hr 44 min 39 sec)
*** Reached end of trace: (2, "traces/canneal_big2.champsimtrace")
*** Reached end of trace: (3, "traces/canneal_big3.champsimtrace")
*** Reached end of trace: (0, "traces/canneal_big0.champsimtrace")
*** Reached end of trace: (2, "traces/canneal_big2.champsimtrace")
*** Reached end of trace: (3, "traces/canneal_big3.champsimtrace")
Heartbeat CPU 2 instructions: 450000001 cycles: 112504204 heartbeat IPC: 4 cumulative IPC: 4 (Simulation time: 03 hr 49 min 11 sec)
Heartbeat CPU 3 instructions: 450000001 cycles: 112504251 heartbeat IPC: 4 cumulative IPC: 4 (Simulation time: 03 hr 49 min 11 sec)
*** Reached end of trace: (2, "traces/canneal_big2.champsimtrace")
*** Reached end of trace: (3, "traces/canneal_big3.champsimtrace")
*** Reached end of trace: (0, "traces/canneal_big0.champsimtrace")
Heartbeat CPU 0 instructions: 260000055 cycles: 114527198 heartbeat IPC: 2.145 cumulative IPC: 2.156 (Simulation time: 03 hr 52 min 57 sec)
*** Reached end of trace: (2, "traces/canneal_big2.champsimtrace")
*** Reached end of trace: (3, "traces/canneal_big3.champsimtrace")
Heartbeat CPU 2 instructions: 460000001 cycles: 115004204 heartbeat IPC: 4 cumulative IPC: 4 (Simulation time: 03 hr 53 min 54 sec)
Heartbeat CPU 3 instructions: 460000001 cycles: 115004251 heartbeat IPC: 4 cumulative IPC: 4 (Simulation time: 03 hr 53 min 54 sec)
*** Reached end of trace: (2, "traces/canneal_big2.champsimtrace")
*** Reached end of trace: (3, "traces/canneal_big3.champsimtrace")
*** Reached end of trace: (0, "traces/canneal_big0.champsimtrace")
*** Reached end of trace: (2, "traces/canneal_big2.champsimtrace")
*** Reached end of trace: (3, "traces/canneal_big3.champsimtrace")
Heartbeat CPU 2 instructions: 470000001 cycles: 117504204 heartbeat IPC: 4 cumulative IPC: 4 (Simulation time: 03 hr 58 min 39 sec)
Heartbeat CPU 3 instructions: 470000001 cycles: 117504251 heartbeat IPC: 4 cumulative IPC: 4 (Simulation time: 03 hr 58 min 39 sec)
*** Reached end of trace: (2, "traces/canneal_big2.champsimtrace")
*** Reached end of trace: (3, "traces/canneal_big3.champsimtrace")
*** Reached end of trace: (0, "traces/canneal_big0.champsimtrace")
Heartbeat CPU 0 instructions: 270000058 cycles: 119178509 heartbeat IPC: 2.15 cumulative IPC: 2.156 (Simulation time: 04 hr 01 min 51 sec)
*** Reached end of trace: (2, "traces/canneal_big2.champsimtrace")
*** Reached end of trace: (3, "traces/canneal_big3.champsimtrace")
Heartbeat CPU 2 instructions: 480000001 cycles: 120004204 heartbeat IPC: 4 cumulative IPC: 4 (Simulation time: 04 hr 03 min 23 sec)
Heartbeat CPU 3 instructions: 480000001 cycles: 120004251 heartbeat IPC: 4 cumulative IPC: 4 (Simulation time: 04 hr 03 min 23 sec)
*** Reached end of trace: (2, "traces/canneal_big2.champsimtrace")
*** Reached end of trace: (3, "traces/canneal_big3.champsimtrace")
*** Reached end of trace: (0, "traces/canneal_big0.champsimtrace")
*** Reached end of trace: (2, "traces/canneal_big2.champsimtrace")
*** Reached end of trace: (3, "traces/canneal_big3.champsimtrace")
Heartbeat CPU 2 instructions: 490000001 cycles: 122504204 heartbeat IPC: 4 cumulative IPC: 4 (Simulation time: 04 hr 07 min 57 sec)
Heartbeat CPU 3 instructions: 490000001 cycles: 122504251 heartbeat IPC: 4 cumulative IPC: 4 (Simulation time: 04 hr 07 min 57 sec)
*** Reached end of trace: (2, "traces/canneal_big2.champsimtrace")
*** Reached end of trace: (3, "traces/canneal_big3.champsimtrace")
*** Reached end of trace: (0, "traces/canneal_big0.champsimtrace")
Heartbeat CPU 0 instructions: 280000059 cycles: 123810249 heartbeat IPC: 2.159 cumulative IPC: 2.156 (Simulation time: 04 hr 10 min 22 sec)
*** Reached end of trace: (2, "traces/canneal_big2.champsimtrace")
*** Reached end of trace: (3, "traces/canneal_big3.champsimtrace")
Heartbeat CPU 2 instructions: 500000001 cycles: 125004204 heartbeat IPC: 4 cumulative IPC: 4 (Simulation time: 04 hr 12 min 38 sec)
Heartbeat CPU 3 instructions: 500000001 cycles: 125004251 heartbeat IPC: 4 cumulative IPC: 4 (Simulation time: 04 hr 12 min 38 sec)
*** Reached end of trace: (0, "traces/canneal_big0.champsimtrace")
*** Reached end of trace: (2, "traces/canneal_big2.champsimtrace")
*** Reached end of trace: (3, "traces/canneal_big3.champsimtrace")
*** Reached end of trace: (2, "traces/canneal_big2.champsimtrace")
*** Reached end of trace: (3, "traces/canneal_big3.champsimtrace")
Heartbeat CPU 2 instructions: 510000001 cycles: 127504204 heartbeat IPC: 4 cumulative IPC: 4 (Simulation time: 04 hr 17 min 25 sec)
Heartbeat CPU 3 instructions: 510000001 cycles: 127504251 heartbeat IPC: 4 cumulative IPC: 4 (Simulation time: 04 hr 17 min 25 sec)
*** Reached end of trace: (0, "traces/canneal_big0.champsimtrace")
Heartbeat CPU 0 instructions: 290000062 cycles: 128437765 heartbeat IPC: 2.161 cumulative IPC: 2.156 (Simulation time: 04 hr 19 min 12 sec)
*** Reached end of trace: (1, "traces/canneal_big1.champsimtrace")
*** Reached end of trace: (2, "traces/canneal_big2.champsimtrace")
*** Reached end of trace: (3, "traces/canneal_big3.champsimtrace")
*** Reached end of trace: (2, "traces/canneal_big2.champsimtrace")
*** Reached end of trace: (3, "traces/canneal_big3.champsimtrace")
Heartbeat CPU 2 instructions: 520000001 cycles: 130004204 heartbeat IPC: 4 cumulative IPC: 4 (Simulation time: 04 hr 22 min 13 sec)
Heartbeat CPU 3 instructions: 520000001 cycles: 130004251 heartbeat IPC: 4 cumulative IPC: 4 (Simulation time: 04 hr 22 min 13 sec)
*** Reached end of trace: (0, "traces/canneal_big0.champsimtrace")
*** Reached end of trace: (2, "traces/canneal_big2.champsimtrace")
*** Reached end of trace: (3, "traces/canneal_big3.champsimtrace")
*** Reached end of trace: (2, "traces/canneal_big2.champsimtrace")
*** Reached end of trace: (3, "traces/canneal_big3.champsimtrace")
Heartbeat CPU 2 instructions: 530000001 cycles: 132504204 heartbeat IPC: 4 cumulative IPC: 4 (Simulation time: 04 hr 27 min 02 sec)
Heartbeat CPU 3 instructions: 530000001 cycles: 132504251 heartbeat IPC: 4 cumulative IPC: 4 (Simulation time: 04 hr 27 min 02 sec)
*** Reached end of trace: (0, "traces/canneal_big0.champsimtrace")
Heartbeat CPU 0 instructions: 300000065 cycles: 133117723 heartbeat IPC: 2.137 cumulative IPC: 2.155 (Simulation time: 04 hr 28 min 12 sec)
*** Reached end of trace: (2, "traces/canneal_big2.champsimtrace")
*** Reached end of trace: (3, "traces/canneal_big3.champsimtrace")
*** Reached end of trace: (2, "traces/canneal_big2.champsimtrace")
*** Reached end of trace: (3, "traces/canneal_big3.champsimtrace")
Heartbeat CPU 2 instructions: 540000001 cycles: 135004204 heartbeat IPC: 4 cumulative IPC: 4 (Simulation time: 04 hr 31 min 44 sec)
Heartbeat CPU 3 instructions: 540000001 cycles: 135004251 heartbeat IPC: 4 cumulative IPC: 4 (Simulation time: 04 hr 31 min 44 sec)
*** Reached end of trace: (0, "traces/canneal_big0.champsimtrace")
*** Reached end of trace: (2, "traces/canneal_big2.champsimtrace")
*** Reached end of trace: (3, "traces/canneal_big3.champsimtrace")
*** Reached end of trace: (2, "traces/canneal_big2.champsimtrace")
*** Reached end of trace: (3, "traces/canneal_big3.champsimtrace")
Heartbeat CPU 2 instructions: 550000001 cycles: 137504204 heartbeat IPC: 4 cumulative IPC: 4 (Simulation time: 04 hr 36 min 33 sec)
Heartbeat CPU 3 instructions: 550000001 cycles: 137504251 heartbeat IPC: 4 cumulative IPC: 4 (Simulation time: 04 hr 36 min 33 sec)
*** Reached end of trace: (0, "traces/canneal_big0.champsimtrace")
Heartbeat CPU 0 instructions: 310000065 cycles: 137766147 heartbeat IPC: 2.151 cumulative IPC: 2.155 (Simulation time: 04 hr 37 min 04 sec)
*** Reached end of trace: (2, "traces/canneal_big2.champsimtrace")
*** Reached end of trace: (3, "traces/canneal_big3.champsimtrace")
*** Reached end of trace: (2, "traces/canneal_big2.champsimtrace")
*** Reached end of trace: (3, "traces/canneal_big3.champsimtrace")
Heartbeat CPU 2 instructions: 560000001 cycles: 140004204 heartbeat IPC: 4 cumulative IPC: 4 (Simulation time: 04 hr 41 min 25 sec)
Heartbeat CPU 3 instructions: 560000001 cycles: 140004251 heartbeat IPC: 4 cumulative IPC: 4 (Simulation time: 04 hr 41 min 25 sec)
*** Reached end of trace: (0, "traces/canneal_big0.champsimtrace")
*** Reached end of trace: (2, "traces/canneal_big2.champsimtrace")
*** Reached end of trace: (3, "traces/canneal_big3.champsimtrace")
*** Reached end of trace: (0, "traces/canneal_big0.champsimtrace")
Heartbeat CPU 0 instructions: 320000066 cycles: 142407627 heartbeat IPC: 2.154 cumulative IPC: 2.155 (Simulation time: 04 hr 46 min 04 sec)
*** Reached end of trace: (2, "traces/canneal_big2.champsimtrace")
*** Reached end of trace: (3, "traces/canneal_big3.champsimtrace")
Heartbeat CPU 2 instructions: 570000001 cycles: 142504204 heartbeat IPC: 4 cumulative IPC: 4 (Simulation time: 04 hr 46 min 15 sec)
Heartbeat CPU 3 instructions: 570000001 cycles: 142504251 heartbeat IPC: 4 cumulative IPC: 4 (Simulation time: 04 hr 46 min 15 sec)
*** Reached end of trace: (2, "traces/canneal_big2.champsimtrace")
*** Reached end of trace: (3, "traces/canneal_big3.champsimtrace")
*** Reached end of trace: (0, "traces/canneal_big0.champsimtrace")
*** Reached end of trace: (2, "traces/canneal_big2.champsimtrace")
*** Reached end of trace: (3, "traces/canneal_big3.champsimtrace")
Heartbeat CPU 2 instructions: 580000001 cycles: 145004204 heartbeat IPC: 4 cumulative IPC: 4 (Simulation time: 04 hr 51 min 07 sec)
Heartbeat CPU 3 instructions: 580000001 cycles: 145004251 heartbeat IPC: 4 cumulative IPC: 4 (Simulation time: 04 hr 51 min 07 sec)
*** Reached end of trace: (2, "traces/canneal_big2.champsimtrace")
*** Reached end of trace: (3, "traces/canneal_big3.champsimtrace")
*** Reached end of trace: (0, "traces/canneal_big0.champsimtrace")
Heartbeat CPU 0 instructions: 330000066 cycles: 147036118 heartbeat IPC: 2.161 cumulative IPC: 2.155 (Simulation time: 04 hr 55 min 05 sec)
*** Reached end of trace: (2, "traces/canneal_big2.champsimtrace")
*** Reached end of trace: (3, "traces/canneal_big3.champsimtrace")
Heartbeat CPU 2 instructions: 590000001 cycles: 147504204 heartbeat IPC: 4 cumulative IPC: 4 (Simulation time: 04 hr 56 min 03 sec)
Heartbeat CPU 3 instructions: 590000001 cycles: 147504251 heartbeat IPC: 4 cumulative IPC: 4 (Simulation time: 04 hr 56 min 03 sec)
*** Reached end of trace: (1, "traces/canneal_big1.champsimtrace")
Heartbeat CPU 1 instructions: 80000014 cycles: 148232302 heartbeat IPC: 0.2544 cumulative IPC: 0.2549 (Simulation time: 04 hr 57 min 30 sec)
*** Reached end of trace: (2, "traces/canneal_big2.champsimtrace")
*** Reached end of trace: (3, "traces/canneal_big3.champsimtrace")
*** Reached end of trace: (0, "traces/canneal_big0.champsimtrace")
*** Reached end of trace: (2, "traces/canneal_big2.champsimtrace")
*** Reached end of trace: (3, "traces/canneal_big3.champsimtrace")
Heartbeat CPU 2 instructions: 600000001 cycles: 150004204 heartbeat IPC: 4 cumulative IPC: 4 (Simulation time: 05 hr 01 min 07 sec)
Heartbeat CPU 3 instructions: 600000001 cycles: 150004251 heartbeat IPC: 4 cumulative IPC: 4 (Simulation time: 05 hr 01 min 07 sec)
*** Reached end of trace: (2, "traces/canneal_big2.champsimtrace")
*** Reached end of trace: (3, "traces/canneal_big3.champsimtrace")
*** Reached end of trace: (0, "traces/canneal_big0.champsimtrace")
Heartbeat CPU 0 instructions: 340000067 cycles: 151692788 heartbeat IPC: 2.147 cumulative IPC: 2.155 (Simulation time: 05 hr 04 min 32 sec)
*** Reached end of trace: (2, "traces/canneal_big2.champsimtrace")
*** Reached end of trace: (3, "traces/canneal_big3.champsimtrace")
Heartbeat CPU 2 instructions: 610000001 cycles: 152504204 heartbeat IPC: 4 cumulative IPC: 4 (Simulation time: 05 hr 06 min 10 sec)
Heartbeat CPU 3 instructions: 610000001 cycles: 152504251 heartbeat IPC: 4 cumulative IPC: 4 (Simulation time: 05 hr 06 min 10 sec)
*** Reached end of trace: (2, "traces/canneal_big2.champsimtrace")
*** Reached end of trace: (3, "traces/canneal_big3.champsimtrace")
*** Reached end of trace: (0, "traces/canneal_big0.champsimtrace")
*** Reached end of trace: (2, "traces/canneal_big2.champsimtrace")
*** Reached end of trace: (3, "traces/canneal_big3.champsimtrace")
Heartbeat CPU 2 instructions: 620000001 cycles: 155004204 heartbeat IPC: 4 cumulative IPC: 4 (Simulation time: 05 hr 11 min 12 sec)
Heartbeat CPU 3 instructions: 620000001 cycles: 155004251 heartbeat IPC: 4 cumulative IPC: 4 (Simulation time: 05 hr 11 min 12 sec)
*** Reached end of trace: (2, "traces/canneal_big2.champsimtrace")
*** Reached end of trace: (3, "traces/canneal_big3.champsimtrace")
*** Reached end of trace: (0, "traces/canneal_big0.champsimtrace")
Heartbeat CPU 0 instructions: 350000067 cycles: 156327914 heartbeat IPC: 2.157 cumulative IPC: 2.155 (Simulation time: 05 hr 13 min 53 sec)
*** Reached end of trace: (2, "traces/canneal_big2.champsimtrace")
*** Reached end of trace: (3, "traces/canneal_big3.champsimtrace")
Heartbeat CPU 2 instructions: 630000001 cycles: 157504204 heartbeat IPC: 4 cumulative IPC: 4 (Simulation time: 05 hr 16 min 02 sec)
Heartbeat CPU 3 instructions: 630000001 cycles: 157504251 heartbeat IPC: 4 cumulative IPC: 4 (Simulation time: 05 hr 16 min 02 sec)
*** Reached end of trace: (0, "traces/canneal_big0.champsimtrace")
*** Reached end of trace: (2, "traces/canneal_big2.champsimtrace")
*** Reached end of trace: (3, "traces/canneal_big3.champsimtrace")
*** Reached end of trace: (2, "traces/canneal_big2.champsimtrace")
*** Reached end of trace: (3, "traces/canneal_big3.champsimtrace")
Heartbeat CPU 2 instructions: 640000001 cycles: 160004204 heartbeat IPC: 4 cumulative IPC: 4 (Simulation time: 05 hr 20 min 29 sec)
Heartbeat CPU 3 instructions: 640000001 cycles: 160004251 heartbeat IPC: 4 cumulative IPC: 4 (Simulation time: 05 hr 20 min 29 sec)
*** Reached end of trace: (0, "traces/canneal_big0.champsimtrace")
Heartbeat CPU 0 instructions: 360000068 cycles: 160964036 heartbeat IPC: 2.157 cumulative IPC: 2.155 (Simulation time: 05 hr 22 min 13 sec)
*** Reached end of trace: (2, "traces/canneal_big2.champsimtrace")
*** Reached end of trace: (3, "traces/canneal_big3.champsimtrace")
*** Reached end of trace: (2, "traces/canneal_big2.champsimtrace")
*** Reached end of trace: (3, "traces/canneal_big3.champsimtrace")
Heartbeat CPU 2 instructions: 650000001 cycles: 162504204 heartbeat IPC: 4 cumulative IPC: 4 (Simulation time: 05 hr 24 min 58 sec)
Heartbeat CPU 3 instructions: 650000001 cycles: 162504251 heartbeat IPC: 4 cumulative IPC: 4 (Simulation time: 05 hr 24 min 58 sec)
*** Reached end of trace: (0, "traces/canneal_big0.champsimtrace")
*** Reached end of trace: (2, "traces/canneal_big2.champsimtrace")
*** Reached end of trace: (3, "traces/canneal_big3.champsimtrace")
*** Reached end of trace: (2, "traces/canneal_big2.champsimtrace")
*** Reached end of trace: (3, "traces/canneal_big3.champsimtrace")
Heartbeat CPU 2 instructions: 660000001 cycles: 165004204 heartbeat IPC: 4 cumulative IPC: 4 (Simulation time: 05 hr 29 min 24 sec)
Heartbeat CPU 3 instructions: 660000001 cycles: 165004251 heartbeat IPC: 4 cumulative IPC: 4 (Simulation time: 05 hr 29 min 24 sec)
*** Reached end of trace: (0, "traces/canneal_big0.champsimtrace")
Heartbeat CPU 0 instructions: 370000068 cycles: 165590428 heartbeat IPC: 2.162 cumulative IPC: 2.155 (Simulation time: 05 hr 30 min 26 sec)
*** Reached end of trace: (2, "traces/canneal_big2.champsimtrace")
*** Reached end of trace: (3, "traces/canneal_big3.champsimtrace")
*** Reached end of trace: (2, "traces/canneal_big2.champsimtrace")
*** Reached end of trace: (3, "traces/canneal_big3.champsimtrace")
Heartbeat CPU 2 instructions: 670000001 cycles: 167504204 heartbeat IPC: 4 cumulative IPC: 4 (Simulation time: 05 hr 33 min 52 sec)
Heartbeat CPU 3 instructions: 670000001 cycles: 167504251 heartbeat IPC: 4 cumulative IPC: 4 (Simulation time: 05 hr 33 min 52 sec)
*** Reached end of trace: (0, "traces/canneal_big0.champsimtrace")
*** Reached end of trace: (1, "traces/canneal_big1.champsimtrace")
*** Reached end of trace: (2, "traces/canneal_big2.champsimtrace")
*** Reached end of trace: (3, "traces/canneal_big3.champsimtrace")
*** Reached end of trace: (2, "traces/canneal_big2.champsimtrace")
*** Reached end of trace: (3, "traces/canneal_big3.champsimtrace")
Heartbeat CPU 2 instructions: 680000001 cycles: 170004204 heartbeat IPC: 4 cumulative IPC: 4 (Simulation time: 05 hr 38 min 45 sec)
Heartbeat CPU 3 instructions: 680000001 cycles: 170004251 heartbeat IPC: 4 cumulative IPC: 4 (Simulation time: 05 hr 38 min 45 sec)
*** Reached end of trace: (0, "traces/canneal_big0.champsimtrace")
Heartbeat CPU 0 instructions: 380000069 cycles: 170246510 heartbeat IPC: 2.148 cumulative IPC: 2.155 (Simulation time: 05 hr 39 min 15 sec)
*** Reached end of trace: (2, "traces/canneal_big2.champsimtrace")
*** Reached end of trace: (3, "traces/canneal_big3.champsimtrace")
*** Reached end of trace: (2, "traces/canneal_big2.champsimtrace")
*** Reached end of trace: (3, "traces/canneal_big3.champsimtrace")
Heartbeat CPU 2 instructions: 690000001 cycles: 172504204 heartbeat IPC: 4 cumulative IPC: 4 (Simulation time: 05 hr 43 min 43 sec)
Heartbeat CPU 3 instructions: 690000001 cycles: 172504251 heartbeat IPC: 4 cumulative IPC: 4 (Simulation time: 05 hr 43 min 43 sec)
*** Reached end of trace: (0, "traces/canneal_big0.champsimtrace")
*** Reached end of trace: (2, "traces/canneal_big2.champsimtrace")
*** Reached end of trace: (3, "traces/canneal_big3.champsimtrace")
*** Reached end of trace: (0, "traces/canneal_big0.champsimtrace")
Heartbeat CPU 0 instructions: 390000072 cycles: 174907941 heartbeat IPC: 2.145 cumulative IPC: 2.155 (Simulation time: 05 hr 48 min 24 sec)
*** Reached end of trace: (2, "traces/canneal_big2.champsimtrace")
*** Reached end of trace: (3, "traces/canneal_big3.champsimtrace")
Heartbeat CPU 2 instructions: 700000001 cycles: 175004204 heartbeat IPC: 4 cumulative IPC: 4 (Simulation time: 05 hr 48 min 36 sec)
Heartbeat CPU 3 instructions: 700000001 cycles: 175004251 heartbeat IPC: 4 cumulative IPC: 4 (Simulation time: 05 hr 48 min 36 sec)
*** Reached end of trace: (2, "traces/canneal_big2.champsimtrace")
*** Reached end of trace: (3, "traces/canneal_big3.champsimtrace")
*** Reached end of trace: (0, "traces/canneal_big0.champsimtrace")
*** Reached end of trace: (2, "traces/canneal_big2.champsimtrace")
*** Reached end of trace: (3, "traces/canneal_big3.champsimtrace")
Heartbeat CPU 2 instructions: 710000001 cycles: 177504204 heartbeat IPC: 4 cumulative IPC: 4 (Simulation time: 05 hr 53 min 15 sec)
Heartbeat CPU 3 instructions: 710000001 cycles: 177504251 heartbeat IPC: 4 cumulative IPC: 4 (Simulation time: 05 hr 53 min 15 sec)
*** Reached end of trace: (2, "traces/canneal_big2.champsimtrace")
*** Reached end of trace: (3, "traces/canneal_big3.champsimtrace")
*** Reached end of trace: (0, "traces/canneal_big0.champsimtrace")
Heartbeat CPU 0 instructions: 400000072 cycles: 179557437 heartbeat IPC: 2.151 cumulative IPC: 2.155 (Simulation time: 05 hr 56 min 56 sec)
*** Reached end of trace: (2, "traces/canneal_big2.champsimtrace")
*** Reached end of trace: (3, "traces/canneal_big3.champsimtrace")
Heartbeat CPU 2 instructions: 720000001 cycles: 180004204 heartbeat IPC: 4 cumulative IPC: 4 (Simulation time: 05 hr 57 min 46 sec)
Heartbeat CPU 3 instructions: 720000001 cycles: 180004251 heartbeat IPC: 4 cumulative IPC: 4 (Simulation time: 05 hr 57 min 46 sec)
*** Reached end of trace: (2, "traces/canneal_big2.champsimtrace")
*** Reached end of trace: (3, "traces/canneal_big3.champsimtrace")
*** Reached end of trace: (0, "traces/canneal_big0.champsimtrace")
*** Reached end of trace: (2, "traces/canneal_big2.champsimtrace")
*** Reached end of trace: (3, "traces/canneal_big3.champsimtrace")
Heartbeat CPU 2 instructions: 730000001 cycles: 182504204 heartbeat IPC: 4 cumulative IPC: 4 (Simulation time: 06 hr 02 min 26 sec)
Heartbeat CPU 3 instructions: 730000001 cycles: 182504251 heartbeat IPC: 4 cumulative IPC: 4 (Simulation time: 06 hr 02 min 26 sec)
*** Reached end of trace: (2, "traces/canneal_big2.champsimtrace")
*** Reached end of trace: (3, "traces/canneal_big3.champsimtrace")
*** Reached end of trace: (0, "traces/canneal_big0.champsimtrace")
Heartbeat CPU 0 instructions: 410000073 cycles: 184183104 heartbeat IPC: 2.162 cumulative IPC: 2.155 (Simulation time: 06 hr 05 min 31 sec)
*** Reached end of trace: (2, "traces/canneal_big2.champsimtrace")
*** Reached end of trace: (3, "traces/canneal_big3.champsimtrace")
Heartbeat CPU 2 instructions: 740000001 cycles: 185004204 heartbeat IPC: 4 cumulative IPC: 4 (Simulation time: 06 hr 07 min 03 sec)
Heartbeat CPU 3 instructions: 740000001 cycles: 185004251 heartbeat IPC: 4 cumulative IPC: 4 (Simulation time: 06 hr 07 min 03 sec)
*** Reached end of trace: (2, "traces/canneal_big2.champsimtrace")
*** Reached end of trace: (3, "traces/canneal_big3.champsimtrace")
*** Reached end of trace: (0, "traces/canneal_big0.champsimtrace")
*** Reached end of trace: (2, "traces/canneal_big2.champsimtrace")
*** Reached end of trace: (3, "traces/canneal_big3.champsimtrace")
Heartbeat CPU 2 instructions: 750000001 cycles: 187504204 heartbeat IPC: 4 cumulative IPC: 4 (Simulation time: 06 hr 11 min 45 sec)
Heartbeat CPU 3 instructions: 750000001 cycles: 187504251 heartbeat IPC: 4 cumulative IPC: 4 (Simulation time: 06 hr 11 min 45 sec)
*** Reached end of trace: (1, "traces/canneal_big1.champsimtrace")
Heartbeat CPU 1 instructions: 90000016 cycles: 187574916 heartbeat IPC: 0.2542 cumulative IPC: 0.2547 (Simulation time: 06 hr 11 min 52 sec)
*** Reached end of trace: (2, "traces/canneal_big2.champsimtrace")
*** Reached end of trace: (3, "traces/canneal_big3.champsimtrace")
*** Reached end of trace: (0, "traces/canneal_big0.champsimtrace")
Heartbeat CPU 0 instructions: 420000076 cycles: 188813673 heartbeat IPC: 2.16 cumulative IPC: 2.155 (Simulation time: 06 hr 14 min 14 sec)
*** Reached end of trace: (2, "traces/canneal_big2.champsimtrace")
*** Reached end of trace: (3, "traces/canneal_big3.champsimtrace")
Heartbeat CPU 2 instructions: 760000001 cycles: 190004204 heartbeat IPC: 4 cumulative IPC: 4 (Simulation time: 06 hr 16 min 28 sec)
Heartbeat CPU 3 instructions: 760000001 cycles: 190004251 heartbeat IPC: 4 cumulative IPC: 4 (Simulation time: 06 hr 16 min 28 sec)
*** Reached end of trace: (0, "traces/canneal_big0.champsimtrace")
*** Reached end of trace: (2, "traces/canneal_big2.champsimtrace")
*** Reached end of trace: (3, "traces/canneal_big3.champsimtrace")
*** Reached end of trace: (2, "traces/canneal_big2.champsimtrace")
*** Reached end of trace: (3, "traces/canneal_big3.champsimtrace")
Heartbeat CPU 2 instructions: 770000001 cycles: 192504204 heartbeat IPC: 4 cumulative IPC: 4 (Simulation time: 06 hr 21 min 13 sec)
Heartbeat CPU 3 instructions: 770000001 cycles: 192504251 heartbeat IPC: 4 cumulative IPC: 4 (Simulation time: 06 hr 21 min 13 sec)
*** Reached end of trace: (0, "traces/canneal_big0.champsimtrace")
Heartbeat CPU 0 instructions: 430000076 cycles: 193478984 heartbeat IPC: 2.143 cumulative IPC: 2.155 (Simulation time: 06 hr 23 min 02 sec)
*** Reached end of trace: (2, "traces/canneal_big2.champsimtrace")
*** Reached end of trace: (3, "traces/canneal_big3.champsimtrace")
*** Reached end of trace: (2, "traces/canneal_big2.champsimtrace")
*** Reached end of trace: (3, "traces/canneal_big3.champsimtrace")
Heartbeat CPU 2 instructions: 780000001 cycles: 195004204 heartbeat IPC: 4 cumulative IPC: 4 (Simulation time: 06 hr 25 min 53 sec)
Heartbeat CPU 3 instructions: 780000001 cycles: 195004251 heartbeat IPC: 4 cumulative IPC: 4 (Simulation time: 06 hr 25 min 53 sec)
*** Reached end of trace: (0, "traces/canneal_big0.champsimtrace")
*** Reached end of trace: (2, "traces/canneal_big2.champsimtrace")
*** Reached end of trace: (3, "traces/canneal_big3.champsimtrace")
*** Reached end of trace: (2, "traces/canneal_big2.champsimtrace")
*** Reached end of trace: (3, "traces/canneal_big3.champsimtrace")
Heartbeat CPU 2 instructions: 790000001 cycles: 197504204 heartbeat IPC: 4 cumulative IPC: 4 (Simulation time: 06 hr 30 min 34 sec)
Heartbeat CPU 3 instructions: 790000001 cycles: 197504251 heartbeat IPC: 4 cumulative IPC: 4 (Simulation time: 06 hr 30 min 34 sec)
*** Reached end of trace: (0, "traces/canneal_big0.champsimtrace")
Heartbeat CPU 0 instructions: 440000079 cycles: 198118555 heartbeat IPC: 2.155 cumulative IPC: 2.155 (Simulation time: 06 hr 31 min 42 sec)
*** Reached end of trace: (2, "traces/canneal_big2.champsimtrace")
*** Reached end of trace: (3, "traces/canneal_big3.champsimtrace")
*** Reached end of trace: (2, "traces/canneal_big2.champsimtrace")
*** Reached end of trace: (3, "traces/canneal_big3.champsimtrace")
Heartbeat CPU 2 instructions: 800000001 cycles: 200004204 heartbeat IPC: 4 cumulative IPC: 4 (Simulation time: 06 hr 35 min 18 sec)
Heartbeat CPU 3 instructions: 800000001 cycles: 200004251 heartbeat IPC: 4 cumulative IPC: 4 (Simulation time: 06 hr 35 min 18 sec)
*** Reached end of trace: (0, "traces/canneal_big0.champsimtrace")
*** Reached end of trace: (2, "traces/canneal_big2.champsimtrace")
*** Reached end of trace: (3, "traces/canneal_big3.champsimtrace")
*** Reached end of trace: (2, "traces/canneal_big2.champsimtrace")
*** Reached end of trace: (3, "traces/canneal_big3.champsimtrace")
Heartbeat CPU 2 instructions: 810000001 cycles: 202504204 heartbeat IPC: 4 cumulative IPC: 4 (Simulation time: 06 hr 40 min 05 sec)
Heartbeat CPU 3 instructions: 810000001 cycles: 202504251 heartbeat IPC: 4 cumulative IPC: 4 (Simulation time: 06 hr 40 min 05 sec)
*** Reached end of trace: (0, "traces/canneal_big0.champsimtrace")
Heartbeat CPU 0 instructions: 450000080 cycles: 202743990 heartbeat IPC: 2.162 cumulative IPC: 2.155 (Simulation time: 06 hr 40 min 32 sec)
*** Reached end of trace: (2, "traces/canneal_big2.champsimtrace")
*** Reached end of trace: (3, "traces/canneal_big3.champsimtrace")
*** Reached end of trace: (2, "traces/canneal_big2.champsimtrace")
*** Reached end of trace: (3, "traces/canneal_big3.champsimtrace")
Heartbeat CPU 2 instructions: 820000001 cycles: 205004204 heartbeat IPC: 4 cumulative IPC: 4 (Simulation time: 06 hr 44 min 47 sec)
Heartbeat CPU 3 instructions: 820000001 cycles: 205004251 heartbeat IPC: 4 cumulative IPC: 4 (Simulation time: 06 hr 44 min 47 sec)
*** Reached end of trace: (0, "traces/canneal_big0.champsimtrace")
*** Reached end of trace: (2, "traces/canneal_big2.champsimtrace")
*** Reached end of trace: (3, "traces/canneal_big3.champsimtrace")
*** Reached end of trace: (1, "traces/canneal_big1.champsimtrace")
*** Reached end of trace: (0, "traces/canneal_big0.champsimtrace")
Heartbeat CPU 0 instructions: 460000080 cycles: 207363231 heartbeat IPC: 2.165 cumulative IPC: 2.155 (Simulation time: 06 hr 49 min 16 sec)
*** Reached end of trace: (2, "traces/canneal_big2.champsimtrace")
*** Reached end of trace: (3, "traces/canneal_big3.champsimtrace")
Heartbeat CPU 2 instructions: 830000001 cycles: 207504204 heartbeat IPC: 4 cumulative IPC: 4 (Simulation time: 06 hr 49 min 33 sec)
Heartbeat CPU 3 instructions: 830000001 cycles: 207504251 heartbeat IPC: 4 cumulative IPC: 4 (Simulation time: 06 hr 49 min 33 sec)
*** Reached end of trace: (2, "traces/canneal_big2.champsimtrace")
*** Reached end of trace: (3, "traces/canneal_big3.champsimtrace")
*** Reached end of trace: (0, "traces/canneal_big0.champsimtrace")
*** Reached end of trace: (2, "traces/canneal_big2.champsimtrace")
*** Reached end of trace: (3, "traces/canneal_big3.champsimtrace")
Heartbeat CPU 2 instructions: 840000001 cycles: 210004204 heartbeat IPC: 4 cumulative IPC: 4 (Simulation time: 06 hr 53 min 30 sec)
Heartbeat CPU 3 instructions: 840000001 cycles: 210004251 heartbeat IPC: 4 cumulative IPC: 4 (Simulation time: 06 hr 53 min 30 sec)
*** Reached end of trace: (2, "traces/canneal_big2.champsimtrace")
*** Reached end of trace: (3, "traces/canneal_big3.champsimtrace")
*** Reached end of trace: (0, "traces/canneal_big0.champsimtrace")
Heartbeat CPU 0 instructions: 470000081 cycles: 212036256 heartbeat IPC: 2.14 cumulative IPC: 2.155 (Simulation time: 06 hr 57 min 14 sec)
*** Reached end of trace: (2, "traces/canneal_big2.champsimtrace")
*** Reached end of trace: (3, "traces/canneal_big3.champsimtrace")
Heartbeat CPU 2 instructions: 850000001 cycles: 212504204 heartbeat IPC: 4 cumulative IPC: 4 (Simulation time: 06 hr 58 min 06 sec)
Heartbeat CPU 3 instructions: 850000001 cycles: 212504251 heartbeat IPC: 4 cumulative IPC: 4 (Simulation time: 06 hr 58 min 06 sec)
*** Reached end of trace: (2, "traces/canneal_big2.champsimtrace")
*** Reached end of trace: (3, "traces/canneal_big3.champsimtrace")
*** Reached end of trace: (0, "traces/canneal_big0.champsimtrace")
*** Reached end of trace: (2, "traces/canneal_big2.champsimtrace")
*** Reached end of trace: (3, "traces/canneal_big3.champsimtrace")
Heartbeat CPU 2 instructions: 860000001 cycles: 215004204 heartbeat IPC: 4 cumulative IPC: 4 (Simulation time: 07 hr 02 min 42 sec)
Heartbeat CPU 3 instructions: 860000001 cycles: 215004251 heartbeat IPC: 4 cumulative IPC: 4 (Simulation time: 07 hr 02 min 42 sec)
*** Reached end of trace: (2, "traces/canneal_big2.champsimtrace")
*** Reached end of trace: (3, "traces/canneal_big3.champsimtrace")
*** Reached end of trace: (0, "traces/canneal_big0.champsimtrace")
Heartbeat CPU 0 instructions: 480000081 cycles: 216671352 heartbeat IPC: 2.157 cumulative IPC: 2.155 (Simulation time: 07 hr 05 min 40 sec)
*** Reached end of trace: (2, "traces/canneal_big2.champsimtrace")
*** Reached end of trace: (3, "traces/canneal_big3.champsimtrace")
Heartbeat CPU 2 instructions: 870000001 cycles: 217504204 heartbeat IPC: 4 cumulative IPC: 4 (Simulation time: 07 hr 07 min 10 sec)
Heartbeat CPU 3 instructions: 870000001 cycles: 217504251 heartbeat IPC: 4 cumulative IPC: 4 (Simulation time: 07 hr 07 min 10 sec)
*** Reached end of trace: (2, "traces/canneal_big2.champsimtrace")
*** Reached end of trace: (3, "traces/canneal_big3.champsimtrace")
*** Reached end of trace: (0, "traces/canneal_big0.champsimtrace")
*** Reached end of trace: (2, "traces/canneal_big2.champsimtrace")
*** Reached end of trace: (3, "traces/canneal_big3.champsimtrace")
Heartbeat CPU 2 instructions: 880000001 cycles: 220004204 heartbeat IPC: 4 cumulative IPC: 4 (Simulation time: 07 hr 11 min 43 sec)
Heartbeat CPU 3 instructions: 880000001 cycles: 220004251 heartbeat IPC: 4 cumulative IPC: 4 (Simulation time: 07 hr 11 min 43 sec)
*** Reached end of trace: (2, "traces/canneal_big2.champsimtrace")
*** Reached end of trace: (3, "traces/canneal_big3.champsimtrace")
*** Reached end of trace: (0, "traces/canneal_big0.champsimtrace")
Heartbeat CPU 0 instructions: 490000082 cycles: 221301292 heartbeat IPC: 2.16 cumulative IPC: 2.155 (Simulation time: 07 hr 14 min 16 sec)
*** Reached end of trace: (2, "traces/canneal_big2.champsimtrace")
*** Reached end of trace: (3, "traces/canneal_big3.champsimtrace")
Heartbeat CPU 2 instructions: 890000001 cycles: 222504204 heartbeat IPC: 4 cumulative IPC: 4 (Simulation time: 07 hr 16 min 38 sec)
Heartbeat CPU 3 instructions: 890000001 cycles: 222504251 heartbeat IPC: 4 cumulative IPC: 4 (Simulation time: 07 hr 16 min 38 sec)
*** Reached end of trace: (0, "traces/canneal_big0.champsimtrace")
*** Reached end of trace: (2, "traces/canneal_big2.champsimtrace")
*** Reached end of trace: (3, "traces/canneal_big3.champsimtrace")
*** Reached end of trace: (2, "traces/canneal_big2.champsimtrace")
*** Reached end of trace: (3, "traces/canneal_big3.champsimtrace")
Heartbeat CPU 2 instructions: 900000001 cycles: 225004204 heartbeat IPC: 4 cumulative IPC: 4 (Simulation time: 07 hr 21 min 27 sec)
Heartbeat CPU 3 instructions: 900000001 cycles: 225004251 heartbeat IPC: 4 cumulative IPC: 4 (Simulation time: 07 hr 21 min 27 sec)
*** Reached end of trace: (0, "traces/canneal_big0.champsimtrace")
Heartbeat CPU 0 instructions: 500000085 cycles: 225918688 heartbeat IPC: 2.166 cumulative IPC: 2.155 (Simulation time: 07 hr 23 min 16 sec)
*** Reached end of trace: (2, "traces/canneal_big2.champsimtrace")
*** Reached end of trace: (3, "traces/canneal_big3.champsimtrace")
*** Reached end of trace: (1, "traces/canneal_big1.champsimtrace")
Heartbeat CPU 1 instructions: 100000018 cycles: 226870142 heartbeat IPC: 0.2545 cumulative IPC: 0.2547 (Simulation time: 07 hr 25 min 11 sec)
*** Reached end of trace: (2, "traces/canneal_big2.champsimtrace")
*** Reached end of trace: (3, "traces/canneal_big3.champsimtrace")
Heartbeat CPU 2 instructions: 910000001 cycles: 227504204 heartbeat IPC: 4 cumulative IPC: 4 (Simulation time: 07 hr 26 min 30 sec)
Heartbeat CPU 3 instructions: 910000001 cycles: 227504251 heartbeat IPC: 4 cumulative IPC: 4 (Simulation time: 07 hr 26 min 30 sec)
*** Reached end of trace: (0, "traces/canneal_big0.champsimtrace")
*** Reached end of trace: (2, "traces/canneal_big2.champsimtrace")
*** Reached end of trace: (3, "traces/canneal_big3.champsimtrace")
*** Reached end of trace: (2, "traces/canneal_big2.champsimtrace")
*** Reached end of trace: (3, "traces/canneal_big3.champsimtrace")
Heartbeat CPU 2 instructions: 920000001 cycles: 230004204 heartbeat IPC: 4 cumulative IPC: 4 (Simulation time: 07 hr 31 min 35 sec)
Heartbeat CPU 3 instructions: 920000001 cycles: 230004251 heartbeat IPC: 4 cumulative IPC: 4 (Simulation time: 07 hr 31 min 35 sec)
*** Reached end of trace: (0, "traces/canneal_big0.champsimtrace")
Heartbeat CPU 0 instructions: 510000088 cycles: 230587526 heartbeat IPC: 2.142 cumulative IPC: 2.155 (Simulation time: 07 hr 32 min 43 sec)
*** Reached end of trace: (2, "traces/canneal_big2.champsimtrace")
*** Reached end of trace: (3, "traces/canneal_big3.champsimtrace")
*** Reached end of trace: (2, "traces/canneal_big2.champsimtrace")
*** Reached end of trace: (3, "traces/canneal_big3.champsimtrace")
Heartbeat CPU 2 instructions: 930000001 cycles: 232504204 heartbeat IPC: 4 cumulative IPC: 4 (Simulation time: 07 hr 36 min 32 sec)
Heartbeat CPU 3 instructions: 930000001 cycles: 232504251 heartbeat IPC: 4 cumulative IPC: 4 (Simulation time: 07 hr 36 min 32 sec)
*** Reached end of trace: (0, "traces/canneal_big0.champsimtrace")
*** Reached end of trace: (2, "traces/canneal_big2.champsimtrace")
*** Reached end of trace: (3, "traces/canneal_big3.champsimtrace")
*** Reached end of trace: (2, "traces/canneal_big2.champsimtrace")
*** Reached end of trace: (3, "traces/canneal_big3.champsimtrace")
Heartbeat CPU 2 instructions: 940000001 cycles: 235004204 heartbeat IPC: 4 cumulative IPC: 4 (Simulation time: 07 hr 41 min 31 sec)
Heartbeat CPU 3 instructions: 940000001 cycles: 235004251 heartbeat IPC: 4 cumulative IPC: 4 (Simulation time: 07 hr 41 min 31 sec)
*** Reached end of trace: (0, "traces/canneal_big0.champsimtrace")
Heartbeat CPU 0 instructions: 520000091 cycles: 235229945 heartbeat IPC: 2.154 cumulative IPC: 2.155 (Simulation time: 07 hr 41 min 57 sec)
*** Reached end of trace: (2, "traces/canneal_big2.champsimtrace")
*** Reached end of trace: (3, "traces/canneal_big3.champsimtrace")
*** Reached end of trace: (2, "traces/canneal_big2.champsimtrace")
*** Reached end of trace: (3, "traces/canneal_big3.champsimtrace")
Heartbeat CPU 2 instructions: 950000001 cycles: 237504204 heartbeat IPC: 4 cumulative IPC: 4 (Simulation time: 07 hr 46 min 04 sec)
Heartbeat CPU 3 instructions: 950000001 cycles: 237504251 heartbeat IPC: 4 cumulative IPC: 4 (Simulation time: 07 hr 46 min 04 sec)
*** Reached end of trace: (0, "traces/canneal_big0.champsimtrace")
*** Reached end of trace: (2, "traces/canneal_big2.champsimtrace")
*** Reached end of trace: (3, "traces/canneal_big3.champsimtrace")
*** Reached end of trace: (0, "traces/canneal_big0.champsimtrace")
Heartbeat CPU 0 instructions: 530000091 cycles: 239864264 heartbeat IPC: 2.158 cumulative IPC: 2.155 (Simulation time: 07 hr 50 min 31 sec)
*** Reached end of trace: (2, "traces/canneal_big2.champsimtrace")
*** Reached end of trace: (3, "traces/canneal_big3.champsimtrace")
Heartbeat CPU 2 instructions: 960000001 cycles: 240004204 heartbeat IPC: 4 cumulative IPC: 4 (Simulation time: 07 hr 50 min 47 sec)
Heartbeat CPU 3 instructions: 960000001 cycles: 240004251 heartbeat IPC: 4 cumulative IPC: 4 (Simulation time: 07 hr 50 min 47 sec)
*** Reached end of trace: (2, "traces/canneal_big2.champsimtrace")
*** Reached end of trace: (3, "traces/canneal_big3.champsimtrace")
*** Reached end of trace: (0, "traces/canneal_big0.champsimtrace")
*** Reached end of trace: (2, "traces/canneal_big2.champsimtrace")
*** Reached end of trace: (3, "traces/canneal_big3.champsimtrace")
Heartbeat CPU 2 instructions: 970000001 cycles: 242504204 heartbeat IPC: 4 cumulative IPC: 4 (Simulation time: 07 hr 55 min 32 sec)
Heartbeat CPU 3 instructions: 970000001 cycles: 242504251 heartbeat IPC: 4 cumulative IPC: 4 (Simulation time: 07 hr 55 min 32 sec)
*** Reached end of trace: (2, "traces/canneal_big2.champsimtrace")
*** Reached end of trace: (3, "traces/canneal_big3.champsimtrace")
*** Reached end of trace: (0, "traces/canneal_big0.champsimtrace")
Heartbeat CPU 0 instructions: 540000095 cycles: 244488886 heartbeat IPC: 2.162 cumulative IPC: 2.155 (Simulation time: 07 hr 59 min 16 sec)
*** Reached end of trace: (2, "traces/canneal_big2.champsimtrace")
*** Reached end of trace: (3, "traces/canneal_big3.champsimtrace")
Heartbeat CPU 2 instructions: 980000001 cycles: 245004204 heartbeat IPC: 4 cumulative IPC: 4 (Simulation time: 08 hr 00 min 17 sec)
Heartbeat CPU 3 instructions: 980000001 cycles: 245004251 heartbeat IPC: 4 cumulative IPC: 4 (Simulation time: 08 hr 00 min 17 sec)
*** Reached end of trace: (2, "traces/canneal_big2.champsimtrace")
*** Reached end of trace: (3, "traces/canneal_big3.champsimtrace")
*** Reached end of trace: (1, "traces/canneal_big1.champsimtrace")
*** Reached end of trace: (0, "traces/canneal_big0.champsimtrace")
*** Reached end of trace: (2, "traces/canneal_big2.champsimtrace")
*** Reached end of trace: (3, "traces/canneal_big3.champsimtrace")
Heartbeat CPU 2 instructions: 990000001 cycles: 247504204 heartbeat IPC: 4 cumulative IPC: 4 (Simulation time: 08 hr 05 min 07 sec)
Heartbeat CPU 3 instructions: 990000001 cycles: 247504251 heartbeat IPC: 4 cumulative IPC: 4 (Simulation time: 08 hr 05 min 07 sec)
*** Reached end of trace: (2, "traces/canneal_big2.champsimtrace")
*** Reached end of trace: (3, "traces/canneal_big3.champsimtrace")
*** Reached end of trace: (0, "traces/canneal_big0.champsimtrace")
Heartbeat CPU 0 instructions: 550000095 cycles: 249141463 heartbeat IPC: 2.149 cumulative IPC: 2.155 (Simulation time: 08 hr 08 min 12 sec)
*** Reached end of trace: (2, "traces/canneal_big2.champsimtrace")
*** Reached end of trace: (3, "traces/canneal_big3.champsimtrace")
Heartbeat CPU 2 instructions: 1000000001 cycles: 250004204 heartbeat IPC: 4 cumulative IPC: 4 (Simulation time: 08 hr 09 min 51 sec)
Heartbeat CPU 3 instructions: 1000000001 cycles: 250004251 heartbeat IPC: 4 cumulative IPC: 4 (Simulation time: 08 hr 09 min 51 sec)
*** Reached end of trace: (2, "traces/canneal_big2.champsimtrace")
*** Reached end of trace: (3, "traces/canneal_big3.champsimtrace")
*** Reached end of trace: (0, "traces/canneal_big0.champsimtrace")
*** Reached end of trace: (2, "traces/canneal_big2.champsimtrace")
*** Reached end of trace: (3, "traces/canneal_big3.champsimtrace")
Heartbeat CPU 2 instructions: 1010000001 cycles: 252504204 heartbeat IPC: 4 cumulative IPC: 4 (Simulation time: 08 hr 14 min 36 sec)
Heartbeat CPU 3 instructions: 1010000001 cycles: 252504251 heartbeat IPC: 4 cumulative IPC: 4 (Simulation time: 08 hr 14 min 36 sec)
*** Reached end of trace: (2, "traces/canneal_big2.champsimtrace")
*** Reached end of trace: (3, "traces/canneal_big3.champsimtrace")
*** Reached end of trace: (0, "traces/canneal_big0.champsimtrace")
Heartbeat CPU 0 instructions: 560000098 cycles: 253795420 heartbeat IPC: 2.149 cumulative IPC: 2.155 (Simulation time: 08 hr 17 min 00 sec)
*** Reached end of trace: (2, "traces/canneal_big2.champsimtrace")
*** Reached end of trace: (3, "traces/canneal_big3.champsimtrace")
Heartbeat CPU 2 instructions: 1020000001 cycles: 255004204 heartbeat IPC: 4 cumulative IPC: 4 (Simulation time: 08 hr 19 min 18 sec)
Heartbeat CPU 3 instructions: 1020000001 cycles: 255004251 heartbeat IPC: 4 cumulative IPC: 4 (Simulation time: 08 hr 19 min 18 sec)
*** Reached end of trace: (0, "traces/canneal_big0.champsimtrace")
*** Reached end of trace: (2, "traces/canneal_big2.champsimtrace")
*** Reached end of trace: (3, "traces/canneal_big3.champsimtrace")
*** Reached end of trace: (2, "traces/canneal_big2.champsimtrace")
*** Reached end of trace: (3, "traces/canneal_big3.champsimtrace")
Heartbeat CPU 2 instructions: 1030000001 cycles: 257504204 heartbeat IPC: 4 cumulative IPC: 4 (Simulation time: 08 hr 24 min 02 sec)
Heartbeat CPU 3 instructions: 1030000001 cycles: 257504251 heartbeat IPC: 4 cumulative IPC: 4 (Simulation time: 08 hr 24 min 02 sec)
*** Reached end of trace: (0, "traces/canneal_big0.champsimtrace")
Heartbeat CPU 0 instructions: 570000101 cycles: 258429864 heartbeat IPC: 2.158 cumulative IPC: 2.155 (Simulation time: 08 hr 25 min 47 sec)
*** Reached end of trace: (2, "traces/canneal_big2.champsimtrace")
*** Reached end of trace: (3, "traces/canneal_big3.champsimtrace")
*** Reached end of trace: (2, "traces/canneal_big2.champsimtrace")
*** Reached end of trace: (3, "traces/canneal_big3.champsimtrace")
Heartbeat CPU 2 instructions: 1040000001 cycles: 260004204 heartbeat IPC: 4 cumulative IPC: 4 (Simulation time: 08 hr 28 min 47 sec)
Heartbeat CPU 3 instructions: 1040000001 cycles: 260004251 heartbeat IPC: 4 cumulative IPC: 4 (Simulation time: 08 hr 28 min 47 sec)
*** Reached end of trace: (0, "traces/canneal_big0.champsimtrace")
*** Reached end of trace: (2, "traces/canneal_big2.champsimtrace")
*** Reached end of trace: (3, "traces/canneal_big3.champsimtrace")
*** Reached end of trace: (2, "traces/canneal_big2.champsimtrace")
*** Reached end of trace: (3, "traces/canneal_big3.champsimtrace")
Heartbeat CPU 2 instructions: 1050000001 cycles: 262504204 heartbeat IPC: 4 cumulative IPC: 4 (Simulation time: 08 hr 33 min 39 sec)
Heartbeat CPU 3 instructions: 1050000001 cycles: 262504251 heartbeat IPC: 4 cumulative IPC: 4 (Simulation time: 08 hr 33 min 39 sec)
*** Reached end of trace: (0, "traces/canneal_big0.champsimtrace")
Heartbeat CPU 0 instructions: 580000102 cycles: 263045182 heartbeat IPC: 2.167 cumulative IPC: 2.155 (Simulation time: 08 hr 34 min 40 sec)
*** Reached end of trace: (2, "traces/canneal_big2.champsimtrace")
*** Reached end of trace: (3, "traces/canneal_big3.champsimtrace")
*** Reached end of trace: (2, "traces/canneal_big2.champsimtrace")
*** Reached end of trace: (3, "traces/canneal_big3.champsimtrace")
Heartbeat CPU 2 instructions: 1060000001 cycles: 265004204 heartbeat IPC: 4 cumulative IPC: 4 (Simulation time: 08 hr 38 min 26 sec)
Heartbeat CPU 3 instructions: 1060000001 cycles: 265004251 heartbeat IPC: 4 cumulative IPC: 4 (Simulation time: 08 hr 38 min 26 sec)
*** Reached end of trace: (0, "traces/canneal_big0.champsimtrace")
*** Reached end of trace: (1, "traces/canneal_big1.champsimtrace")
Heartbeat CPU 1 instructions: 110000020 cycles: 266145573 heartbeat IPC: 0.2546 cumulative IPC: 0.2547 (Simulation time: 08 hr 40 min 40 sec)
*** Reached end of trace: (2, "traces/canneal_big2.champsimtrace")
*** Reached end of trace: (3, "traces/canneal_big3.champsimtrace")
*** Reached end of trace: (2, "traces/canneal_big2.champsimtrace")
*** Reached end of trace: (3, "traces/canneal_big3.champsimtrace")
Heartbeat CPU 2 instructions: 1070000001 cycles: 267504204 heartbeat IPC: 4 cumulative IPC: 4 (Simulation time: 08 hr 43 min 19 sec)
Heartbeat CPU 3 instructions: 1070000001 cycles: 267504251 heartbeat IPC: 4 cumulative IPC: 4 (Simulation time: 08 hr 43 min 19 sec)
*** Reached end of trace: (0, "traces/canneal_big0.champsimtrace")
Heartbeat CPU 0 instructions: 590000102 cycles: 267686132 heartbeat IPC: 2.155 cumulative IPC: 2.155 (Simulation time: 08 hr 43 min 40 sec)
*** Reached end of trace: (2, "traces/canneal_big2.champsimtrace")
*** Reached end of trace: (3, "traces/canneal_big3.champsimtrace")
*** Reached end of trace: (2, "traces/canneal_big2.champsimtrace")
*** Reached end of trace: (3, "traces/canneal_big3.champsimtrace")
Heartbeat CPU 2 instructions: 1080000001 cycles: 270004204 heartbeat IPC: 4 cumulative IPC: 4 (Simulation time: 08 hr 48 min 11 sec)
Heartbeat CPU 3 instructions: 1080000001 cycles: 270004251 heartbeat IPC: 4 cumulative IPC: 4 (Simulation time: 08 hr 48 min 11 sec)
*** Reached end of trace: (0, "traces/canneal_big0.champsimtrace")
*** Reached end of trace: (2, "traces/canneal_big2.champsimtrace")
*** Reached end of trace: (3, "traces/canneal_big3.champsimtrace")
*** Reached end of trace: (0, "traces/canneal_big0.champsimtrace")
Heartbeat CPU 0 instructions: 600000103 cycles: 272345600 heartbeat IPC: 2.146 cumulative IPC: 2.155 (Simulation time: 08 hr 52 min 48 sec)
*** Reached end of trace: (2, "traces/canneal_big2.champsimtrace")
*** Reached end of trace: (3, "traces/canneal_big3.champsimtrace")
Heartbeat CPU 2 instructions: 1090000001 cycles: 272504204 heartbeat IPC: 4 cumulative IPC: 4 (Simulation time: 08 hr 53 min 07 sec)
Heartbeat CPU 3 instructions: 1090000001 cycles: 272504251 heartbeat IPC: 4 cumulative IPC: 4 (Simulation time: 08 hr 53 min 07 sec)
*** Reached end of trace: (2, "traces/canneal_big2.champsimtrace")
*** Reached end of trace: (3, "traces/canneal_big3.champsimtrace")
*** Reached end of trace: (0, "traces/canneal_big0.champsimtrace")
*** Reached end of trace: (2, "traces/canneal_big2.champsimtrace")
*** Reached end of trace: (3, "traces/canneal_big3.champsimtrace")
Heartbeat CPU 2 instructions: 1100000001 cycles: 275004204 heartbeat IPC: 4 cumulative IPC: 4 (Simulation time: 08 hr 58 min 07 sec)
Heartbeat CPU 3 instructions: 1100000001 cycles: 275004251 heartbeat IPC: 4 cumulative IPC: 4 (Simulation time: 08 hr 58 min 07 sec)
*** Reached end of trace: (2, "traces/canneal_big2.champsimtrace")
*** Reached end of trace: (3, "traces/canneal_big3.champsimtrace")
*** Reached end of trace: (0, "traces/canneal_big0.champsimtrace")
[...]
cpu0->cpu0_ITLB PREFETCH REQUESTED:          0 ISSUED:          0 USEFUL:          0 USELESS:          0
cpu0->cpu0_ITLB AVERAGE MISS LATENCY: 3.9 cycles
cpu0_ITLB COHERENCE INVALIDATIONS:          0
cpu0_ITLB COHERENCE WRITE-HIT OTHER-SHARER EVENTS:          0
cpu0->cpu0_DTLB TOTAL        ACCESS:  141040576 HIT:  140669385 MISS:     371191 MSHR_MERGE:      82802
cpu0->cpu0_DTLB LOAD         ACCESS:  141040576 HIT:  140669385 MISS:     371191 MSHR_MERGE:      82802
cpu0->cpu0_DTLB RFO          ACCESS:          0 HIT:          0 MISS:          0 MSHR_MERGE:          0
cpu0->cpu0_DTLB PREFETCH     ACCESS:          0 HIT:          0 MISS:          0 MSHR_MERGE:          0
cpu0->cpu0_DTLB WRITE        ACCESS:          0 HIT:          0 MISS:          0 MSHR_MERGE:          0
cpu0->cpu0_DTLB TRANSLATION  ACCESS:          0 HIT:          0 MISS:          0 MSHR_MERGE:          0
cpu0->cpu0_DTLB PREFETCH REQUESTED:          0 ISSUED:          0 USEFUL:          0 USELESS:          0
cpu0->cpu0_DTLB AVERAGE MISS LATENCY: 4 cycles
cpu0_DTLB COHERENCE INVALIDATIONS:          0
cpu0_DTLB COHERENCE WRITE-HIT OTHER-SHARER EVENTS:          0
cpu0->LLC TOTAL        ACCESS:    9447860 HIT:    5066512 MISS:    4381348 MSHR_MERGE:          6
cpu0->LLC LOAD         ACCESS:    1069711 HIT:     132225 MISS:     937486 MSHR_MERGE:          0
cpu0->LLC RFO          ACCESS:    4165284 HIT:     722740 MISS:    3442544 MSHR_MERGE:          6
cpu0->LLC PREFETCH     ACCESS:          0 HIT:          0 MISS:          0 MSHR_MERGE:          0
cpu0->LLC WRITE        ACCESS:    4212865 HIT:    4211547 MISS:       1318 MSHR_MERGE:          0
cpu0->LLC TRANSLATION  ACCESS:          0 HIT:          0 MISS:          0 MSHR_MERGE:          0
cpu0->LLC PREFETCH REQUESTED:          0 ISSUED:          0 USEFUL:          0 USELESS:          0
cpu0->LLC AVERAGE MISS LATENCY: 399 cycles
cpu1->LLC TOTAL        ACCESS:    1939322 HIT:     142747 MISS:    1796575 MSHR_MERGE:          7
cpu1->LLC LOAD         ACCESS:    1551790 HIT:     140329 MISS:    1411461 MSHR_MERGE:          7
cpu1->LLC RFO          ACCESS:          0 HIT:          0 MISS:          0 MSHR_MERGE:          0
cpu1->LLC PREFETCH     ACCESS:          0 HIT:          0 MISS:          0 MSHR_MERGE:          0
cpu1->LLC WRITE        ACCESS:          0 HIT:          0 MISS:          0 MSHR_MERGE:          0
cpu1->LLC TRANSLATION  ACCESS:     387532 HIT:       2418 MISS:     385114 MSHR_MERGE:          0
cpu1->LLC PREFETCH REQUESTED:          0 ISSUED:          0 USEFUL:          0 USELESS:          0
cpu1->LLC AVERAGE MISS LATENCY: 973.1 cycles
LLC COHERENCE INVALIDATIONS:     100546
LLC COHERENCE WRITE-HIT OTHER-SHARER EVENTS:     100546

Region of Interest Statistics

CPU 3 cumulative IPC: 4 instructions: 100000000 cycles: 25000000
CPU 3 Branch Prediction Accuracy: -% MPKI: 0 Average ROB Occupancy at Mispredict: -
Branch type MPKI
BRANCH_DIRECT_JUMP: 0
BRANCH_INDIRECT: 0
BRANCH_CONDITIONAL: 0
BRANCH_DIRECT_CALL: 0
BRANCH_INDIRECT_CALL: 0
BRANCH_RETURN: 0


CPU 2 cumulative IPC: 4 instructions: 100000000 cycles: 25000000
CPU 2 Branch Prediction Accuracy: -% MPKI: 0 Average ROB Occupancy at Mispredict: -
Branch type MPKI
BRANCH_DIRECT_JUMP: 0
BRANCH_INDIRECT: 0
BRANCH_CONDITIONAL: 0
BRANCH_DIRECT_CALL: 0
BRANCH_INDIRECT_CALL: 0
BRANCH_RETURN: 0


CPU 1 cumulative IPC: 0.2545 instructions: 100000000 cycles: 392999637
CPU 1 Branch Prediction Accuracy: -% MPKI: 0 Average ROB Occupancy at Mispredict: -
Branch type MPKI
BRANCH_DIRECT_JUMP: 0
BRANCH_INDIRECT: 0
BRANCH_CONDITIONAL: 0
BRANCH_DIRECT_CALL: 0
BRANCH_INDIRECT_CALL: 0
BRANCH_RETURN: 0


CPU 0 cumulative IPC: 2.153 instructions: 100000000 cycles: 46447501
CPU 0 Branch Prediction Accuracy: -% MPKI: 0 Average ROB Occupancy at Mispredict: -
Branch type MPKI
BRANCH_DIRECT_JUMP: 0
BRANCH_INDIRECT: 0
BRANCH_CONDITIONAL: 0
BRANCH_DIRECT_CALL: 0
BRANCH_INDIRECT_CALL: 0
BRANCH_RETURN: 0

cpu3_STLB COHERENCE INVALIDATIONS:          0
cpu3_STLB COHERENCE WRITE-HIT OTHER-SHARER EVENTS:          0
cpu3_L2C COHERENCE INVALIDATIONS:          0
cpu3_L2C COHERENCE WRITE-HIT OTHER-SHARER EVENTS:          0
cpu3->cpu3_L1I TOTAL        ACCESS:  224860437 HIT:  224860437 MISS:          0 MSHR_MERGE:          0
cpu3->cpu3_L1I LOAD         ACCESS:  224860437 HIT:  224860437 MISS:          0 MSHR_MERGE:          0
cpu3->cpu3_L1I RFO          ACCESS:          0 HIT:          0 MISS:          0 MSHR_MERGE:          0
cpu3->cpu3_L1I PREFETCH     ACCESS:          0 HIT:          0 MISS:          0 MSHR_MERGE:          0
cpu3->cpu3_L1I WRITE        ACCESS:          0 HIT:          0 MISS:          0 MSHR_MERGE:          0
cpu3->cpu3_L1I TRANSLATION  ACCESS:          0 HIT:          0 MISS:          0 MSHR_MERGE:          0
cpu3->cpu3_L1I PREFETCH REQUESTED:          0 ISSUED:          0 USEFUL:          0 USELESS:          0
cpu3->cpu3_L1I AVERAGE MISS LATENCY: - cycles
cpu3_L1I COHERENCE INVALIDATIONS:          0
cpu3_L1I COHERENCE WRITE-HIT OTHER-SHARER EVENTS:          0
cpu3_L1D COHERENCE INVALIDATIONS:          0
cpu3_L1D COHERENCE WRITE-HIT OTHER-SHARER EVENTS:          0
cpu3->cpu3_ITLB TOTAL        ACCESS:  188310086 HIT:  188310086 MISS:          0 MSHR_MERGE:          0
cpu3->cpu3_ITLB LOAD         ACCESS:  188310086 HIT:  188310086 MISS:          0 MSHR_MERGE:          0
cpu3->cpu3_ITLB RFO          ACCESS:          0 HIT:          0 MISS:          0 MSHR_MERGE:          0
cpu3->cpu3_ITLB PREFETCH     ACCESS:          0 HIT:          0 MISS:          0 MSHR_MERGE:          0
cpu3->cpu3_ITLB WRITE        ACCESS:          0 HIT:          0 MISS:          0 MSHR_MERGE:          0
cpu3->cpu3_ITLB TRANSLATION  ACCESS:          0 HIT:          0 MISS:          0 MSHR_MERGE:          0
cpu3->cpu3_ITLB PREFETCH REQUESTED:          0 ISSUED:          0 USEFUL:          0 USELESS:          0
cpu3->cpu3_ITLB AVERAGE MISS LATENCY: - cycles
cpu3_ITLB COHERENCE INVALIDATIONS:          0
cpu3_ITLB COHERENCE WRITE-HIT OTHER-SHARER EVENTS:          0
cpu3_DTLB COHERENCE INVALIDATIONS:          0
cpu3_DTLB COHERENCE WRITE-HIT OTHER-SHARER EVENTS:          0
cpu2_STLB COHERENCE INVALIDATIONS:          0
cpu2_STLB COHERENCE WRITE-HIT OTHER-SHARER EVENTS:          0
cpu2_L2C COHERENCE INVALIDATIONS:          0
cpu2_L2C COHERENCE WRITE-HIT OTHER-SHARER EVENTS:          0
cpu2->cpu2_L1I TOTAL        ACCESS:  225866778 HIT:  225866778 MISS:          0 MSHR_MERGE:          0
cpu2->cpu2_L1I LOAD         ACCESS:  225866778 HIT:  225866778 MISS:          0 MSHR_MERGE:          0
cpu2->cpu2_L1I RFO          ACCESS:          0 HIT:          0 MISS:          0 MSHR_MERGE:          0
cpu2->cpu2_L1I PREFETCH     ACCESS:          0 HIT:          0 MISS:          0 MSHR_MERGE:          0
cpu2->cpu2_L1I WRITE        ACCESS:          0 HIT:          0 MISS:          0 MSHR_MERGE:          0
cpu2->cpu2_L1I TRANSLATION  ACCESS:          0 HIT:          0 MISS:          0 MSHR_MERGE:          0
cpu2->cpu2_L1I PREFETCH REQUESTED:          0 ISSUED:          0 USEFUL:          0 USELESS:          0
cpu2->cpu2_L1I AVERAGE MISS LATENCY: - cycles
cpu2_L1I COHERENCE INVALIDATIONS:          0
cpu2_L1I COHERENCE WRITE-HIT OTHER-SHARER EVENTS:          0
cpu2_L1D COHERENCE INVALIDATIONS:          0
cpu2_L1D COHERENCE WRITE-HIT OTHER-SHARER EVENTS:          0
cpu2->cpu2_ITLB TOTAL        ACCESS:  188459922 HIT:  188459922 MISS:          0 MSHR_MERGE:          0
cpu2->cpu2_ITLB LOAD         ACCESS:  188459922 HIT:  188459922 MISS:          0 MSHR_MERGE:          0
cpu2->cpu2_ITLB RFO          ACCESS:          0 HIT:          0 MISS:          0 MSHR_MERGE:          0
cpu2->cpu2_ITLB PREFETCH     ACCESS:          0 HIT:          0 MISS:          0 MSHR_MERGE:          0
cpu2->cpu2_ITLB WRITE        ACCESS:          0 HIT:          0 MISS:          0 MSHR_MERGE:          0
cpu2->cpu2_ITLB TRANSLATION  ACCESS:          0 HIT:          0 MISS:          0 MSHR_MERGE:          0
cpu2->cpu2_ITLB PREFETCH REQUESTED:          0 ISSUED:          0 USEFUL:          0 USELESS:          0
cpu2->cpu2_ITLB AVERAGE MISS LATENCY: - cycles
cpu2_ITLB COHERENCE INVALIDATIONS:          0
cpu2_ITLB COHERENCE WRITE-HIT OTHER-SHARER EVENTS:          0
cpu2_DTLB COHERENCE INVALIDATIONS:          0
cpu2_DTLB COHERENCE WRITE-HIT OTHER-SHARER EVENTS:          0
cpu1->cpu1_STLB TOTAL        ACCESS:    2220566 HIT:    2024344 MISS:     196222 MSHR_MERGE:          0
cpu1->cpu1_STLB LOAD         ACCESS:    2220566 HIT:    2024344 MISS:     196222 MSHR_MERGE:          0
cpu1->cpu1_STLB RFO          ACCESS:          0 HIT:          0 MISS:          0 MSHR_MERGE:          0
cpu1->cpu1_STLB PREFETCH     ACCESS:          0 HIT:          0 MISS:          0 MSHR_MERGE:          0
cpu1->cpu1_STLB WRITE        ACCESS:          0 HIT:          0 MISS:          0 MSHR_MERGE:          0
cpu1->cpu1_STLB TRANSLATION  ACCESS:          0 HIT:          0 MISS:          0 MSHR_MERGE:          0
cpu1->cpu1_STLB PREFETCH REQUESTED:          0 ISSUED:          0 USEFUL:          0 USELESS:          0
cpu1->cpu1_STLB AVERAGE MISS LATENCY: 613.3 cycles
cpu1_STLB COHERENCE INVALIDATIONS:          0
cpu1_STLB COHERENCE WRITE-HIT OTHER-SHARER EVENTS:          0
cpu1->cpu1_L2C TOTAL        ACCESS:    2352675 HIT:     413353 MISS:    1939322 MSHR_MERGE:          0
cpu1->cpu1_L2C LOAD         ACCESS:    1963843 HIT:     412053 MISS:    1551790 MSHR_MERGE:          0
cpu1->cpu1_L2C RFO          ACCESS:          0 HIT:          0 MISS:          0 MSHR_MERGE:          0
cpu1->cpu1_L2C PREFETCH     ACCESS:          0 HIT:          0 MISS:          0 MSHR_MERGE:          0
cpu1->cpu1_L2C WRITE        ACCESS:          0 HIT:          0 MISS:          0 MSHR_MERGE:          0
cpu1->cpu1_L2C TRANSLATION  ACCESS:     388832 HIT:       1300 MISS:     387532 MSHR_MERGE:          0
cpu1->cpu1_L2C PREFETCH REQUESTED:          0 ISSUED:          0 USEFUL:          0 USELESS:          0
cpu1->cpu1_L2C AVERAGE MISS LATENCY: 284.7 cycles
cpu1_L2C COHERENCE INVALIDATIONS:          0
cpu1_L2C COHERENCE WRITE-HIT OTHER-SHARER EVENTS:          0
cpu1->cpu1_L1I TOTAL        ACCESS:   33814268 HIT:   31666295 MISS:    2147973 MSHR_MERGE:     184130
cpu1->cpu1_L1I LOAD         ACCESS:   33814268 HIT:   31666295 MISS:    2147973 MSHR_MERGE:     184130
cpu1->cpu1_L1I RFO          ACCESS:          0 HIT:          0 MISS:          0 MSHR_MERGE:          0
cpu1->cpu1_L1I PREFETCH     ACCESS:          0 HIT:          0 MISS:          0 MSHR_MERGE:          0
cpu1->cpu1_L1I WRITE        ACCESS:          0 HIT:          0 MISS:          0 MSHR_MERGE:          0
cpu1->cpu1_L1I TRANSLATION  ACCESS:          0 HIT:          0 MISS:          0 MSHR_MERGE:          0
cpu1->cpu1_L1I PREFETCH REQUESTED:          0 ISSUED:          0 USEFUL:          0 USELESS:          0
cpu1->cpu1_L1I AVERAGE MISS LATENCY: 230.3 cycles
cpu1_L1I COHERENCE INVALIDATIONS:          0
cpu1_L1I COHERENCE WRITE-HIT OTHER-SHARER EVENTS:          0
cpu1->cpu1_L1D TOTAL        ACCESS:     392581 HIT:       3749 MISS:     388832 MSHR_MERGE:          0
cpu1->cpu1_L1D LOAD         ACCESS:          0 HIT:          0 MISS:          0 MSHR_MERGE:          0
cpu1->cpu1_L1D RFO          ACCESS:          0 HIT:          0 MISS:          0 MSHR_MERGE:          0
cpu1->cpu1_L1D PREFETCH     ACCESS:          0 HIT:          0 MISS:          0 MSHR_MERGE:          0
cpu1->cpu1_L1D WRITE        ACCESS:          0 HIT:          0 MISS:          0 MSHR_MERGE:          0
cpu1->cpu1_L1D TRANSLATION  ACCESS:     392581 HIT:       3749 MISS:     388832 MSHR_MERGE:          0
cpu1->cpu1_L1D PREFETCH REQUESTED:          0 ISSUED:          0 USEFUL:          0 USELESS:          0
cpu1->cpu1_L1D AVERAGE MISS LATENCY: 303.4 cycles
cpu1_L1D COHERENCE INVALIDATIONS:          0
cpu1_L1D COHERENCE WRITE-HIT OTHER-SHARER EVENTS:          0
cpu1->cpu1_ITLB TOTAL        ACCESS:   33278277 HIT:   31006887 MISS:    2271390 MSHR_MERGE:      50824
cpu1->cpu1_ITLB LOAD         ACCESS:   33278277 HIT:   31006887 MISS:    2271390 MSHR_MERGE:      50824
cpu1->cpu1_ITLB RFO          ACCESS:          0 HIT:          0 MISS:          0 MSHR_MERGE:          0
cpu1->cpu1_ITLB PREFETCH     ACCESS:          0 HIT:          0 MISS:          0 MSHR_MERGE:          0
cpu1->cpu1_ITLB WRITE        ACCESS:          0 HIT:          0 MISS:          0 MSHR_MERGE:          0
cpu1->cpu1_ITLB TRANSLATION  ACCESS:          0 HIT:          0 MISS:          0 MSHR_MERGE:          0
cpu1->cpu1_ITLB PREFETCH REQUESTED:          0 ISSUED:          0 USEFUL:          0 USELESS:          0
cpu1->cpu1_ITLB AVERAGE MISS LATENCY: 58.28 cycles
cpu1_ITLB COHERENCE INVALIDATIONS:          0
cpu1_ITLB COHERENCE WRITE-HIT OTHER-SHARER EVENTS:          0
cpu1_DTLB COHERENCE INVALIDATIONS:          0
cpu1_DTLB COHERENCE WRITE-HIT OTHER-SHARER EVENTS:          0
cpu0->cpu0_STLB TOTAL        ACCESS:     317289 HIT:     317289 MISS:          0 MSHR_MERGE:          0
cpu0->cpu0_STLB LOAD         ACCESS:     317289 HIT:     317289 MISS:          0 MSHR_MERGE:          0
cpu0->cpu0_STLB RFO          ACCESS:          0 HIT:          0 MISS:          0 MSHR_MERGE:          0
cpu0->cpu0_STLB PREFETCH     ACCESS:          0 HIT:          0 MISS:          0 MSHR_MERGE:          0
cpu0->cpu0_STLB WRITE        ACCESS:          0 HIT:          0 MISS:          0 MSHR_MERGE:          0
cpu0->cpu0_STLB TRANSLATION  ACCESS:          0 HIT:          0 MISS:          0 MSHR_MERGE:          0
cpu0->cpu0_STLB PREFETCH REQUESTED:          0 ISSUED:          0 USEFUL:          0 USELESS:          0
cpu0->cpu0_STLB AVERAGE MISS LATENCY: - cycles
cpu0_STLB COHERENCE INVALIDATIONS:          0
cpu0_STLB COHERENCE WRITE-HIT OTHER-SHARER EVENTS:          0
cpu0->cpu0_L2C TOTAL        ACCESS:   10148866 HIT:    4913689 MISS:    5235177 MSHR_MERGE:          0
cpu0->cpu0_L2C LOAD         ACCESS:    1601586 HIT:     531875 MISS:    1069711 MSHR_MERGE:          0
cpu0->cpu0_L2C RFO          ACCESS:    4241575 HIT:      76291 MISS:    4165284 MSHR_MERGE:          0
cpu0->cpu0_L2C PREFETCH     ACCESS:          0 HIT:          0 MISS:          0 MSHR_MERGE:          0
cpu0->cpu0_L2C WRITE        ACCESS:    4305705 HIT:    4305523 MISS:        182 MSHR_MERGE:          0
cpu0->cpu0_L2C TRANSLATION  ACCESS:          0 HIT:          0 MISS:          0 MSHR_MERGE:          0
cpu0->cpu0_L2C PREFETCH REQUESTED:          0 ISSUED:          0 USEFUL:          0 USELESS:          0
cpu0->cpu0_L2C AVERAGE MISS LATENCY: 250.3 cycles
cpu0_L2C COHERENCE INVALIDATIONS:          0
cpu0_L2C COHERENCE WRITE-HIT OTHER-SHARER EVENTS:          0
cpu0->cpu0_L1I TOTAL        ACCESS:  130821095 HIT:  130515204 MISS:     305891 MSHR_MERGE:      76545
cpu0->cpu0_L1I LOAD         ACCESS:  130821095 HIT:  130515204 MISS:     305891 MSHR_MERGE:      76545
cpu0->cpu0_L1I RFO          ACCESS:          0 HIT:          0 MISS:          0 MSHR_MERGE:          0
cpu0->cpu0_L1I PREFETCH     ACCESS:          0 HIT:          0 MISS:          0 MSHR_MERGE:          0
cpu0->cpu0_L1I WRITE        ACCESS:          0 HIT:          0 MISS:          0 MSHR_MERGE:          0
cpu0->cpu0_L1I TRANSLATION  ACCESS:          0 HIT:          0 MISS:          0 MSHR_MERGE:          0
cpu0->cpu0_L1I PREFETCH REQUESTED:          0 ISSUED:          0 USEFUL:          0 USELESS:          0
cpu0->cpu0_L1I AVERAGE MISS LATENCY: 300.6 cycles
cpu0_L1I COHERENCE INVALIDATIONS:          0
cpu0_L1I COHERENCE WRITE-HIT OTHER-SHARER EVENTS:          0
cpu0->cpu0_L1D TOTAL        ACCESS:  169283369 HIT:  139370027 MISS:   29913342 MSHR_MERGE:   24295396
cpu0->cpu0_L1D LOAD         ACCESS:   17298359 HIT:   14567237 MISS:    2731122 MSHR_MERGE:    1358882
cpu0->cpu0_L1D RFO          ACCESS:          0 HIT:          0 MISS:          0 MSHR_MERGE:          0
cpu0->cpu0_L1D PREFETCH     ACCESS:          0 HIT:          0 MISS:          0 MSHR_MERGE:          0
cpu0->cpu0_L1D WRITE        ACCESS:  151985010 HIT:  124802790 MISS:   27182220 MSHR_MERGE:   22936514
cpu0->cpu0_L1D TRANSLATION  ACCESS:          0 HIT:          0 MISS:          0 MSHR_MERGE:          0
cpu0->cpu0_L1D PREFETCH REQUESTED:          0 ISSUED:          0 USEFUL:          0 USELESS:          0
cpu0->cpu0_L1D AVERAGE MISS LATENCY: 229.3 cycles
cpu0_L1D COHERENCE INVALIDATIONS:          0
cpu0_L1D COHERENCE WRITE-HIT OTHER-SHARER EVENTS:          0
cpu0->cpu0_ITLB TOTAL        ACCESS:  112628862 HIT:  112583090 MISS:      45772 MSHR_MERGE:      16872
cpu0->cpu0_ITLB LOAD         ACCESS:  112628862 HIT:  112583090 MISS:      45772 MSHR_MERGE:      16872
cpu0->cpu0_ITLB RFO          ACCESS:          0 HIT:          0 MISS:          0 MSHR_MERGE:          0
cpu0->cpu0_ITLB PREFETCH     ACCESS:          0 HIT:          0 MISS:          0 MSHR_MERGE:          0
cpu0->cpu0_ITLB WRITE        ACCESS:          0 HIT:          0 MISS:          0 MSHR_MERGE:          0
cpu0->cpu0_ITLB TRANSLATION  ACCESS:          0 HIT:          0 MISS:          0 MSHR_MERGE:          0
cpu0->cpu0_ITLB PREFETCH REQUESTED:          0 ISSUED:          0 USEFUL:          0 USELESS:          0
cpu0->cpu0_ITLB AVERAGE MISS LATENCY: 3.9 cycles
cpu0_ITLB COHERENCE INVALIDATIONS:          0
cpu0_ITLB COHERENCE WRITE-HIT OTHER-SHARER EVENTS:          0
cpu0->cpu0_DTLB TOTAL        ACCESS:  141040576 HIT:  140669385 MISS:     371191 MSHR_MERGE:      82802
cpu0->cpu0_DTLB LOAD         ACCESS:  141040576 HIT:  140669385 MISS:     371191 MSHR_MERGE:      82802
cpu0->cpu0_DTLB RFO          ACCESS:          0 HIT:          0 MISS:          0 MSHR_MERGE:          0
cpu0->cpu0_DTLB PREFETCH     ACCESS:          0 HIT:          0 MISS:          0 MSHR_MERGE:          0
cpu0->cpu0_DTLB WRITE        ACCESS:          0 HIT:          0 MISS:          0 MSHR_MERGE:          0
cpu0->cpu0_DTLB TRANSLATION  ACCESS:          0 HIT:          0 MISS:          0 MSHR_MERGE:          0
cpu0->cpu0_DTLB PREFETCH REQUESTED:          0 ISSUED:          0 USEFUL:          0 USELESS:          0
cpu0->cpu0_DTLB AVERAGE MISS LATENCY: 4 cycles
cpu0_DTLB COHERENCE INVALIDATIONS:          0
cpu0_DTLB COHERENCE WRITE-HIT OTHER-SHARER EVENTS:          0
cpu0->LLC TOTAL        ACCESS:    9447860 HIT:    5066512 MISS:    4381348 MSHR_MERGE:          6
cpu0->LLC LOAD         ACCESS:    1069711 HIT:     132225 MISS:     937486 MSHR_MERGE:          0
cpu0->LLC RFO          ACCESS:    4165284 HIT:     722740 MISS:    3442544 MSHR_MERGE:          6
cpu0->LLC PREFETCH     ACCESS:          0 HIT:          0 MISS:          0 MSHR_MERGE:          0
cpu0->LLC WRITE        ACCESS:    4212865 HIT:    4211547 MISS:       1318 MSHR_MERGE:          0
cpu0->LLC TRANSLATION  ACCESS:          0 HIT:          0 MISS:          0 MSHR_MERGE:          0
cpu0->LLC PREFETCH REQUESTED:          0 ISSUED:          0 USEFUL:          0 USELESS:          0
cpu0->LLC AVERAGE MISS LATENCY: 399 cycles
cpu1->LLC TOTAL        ACCESS:    1939322 HIT:     142747 MISS:    1796575 MSHR_MERGE:          7
cpu1->LLC LOAD         ACCESS:    1551790 HIT:     140329 MISS:    1411461 MSHR_MERGE:          7
cpu1->LLC RFO          ACCESS:          0 HIT:          0 MISS:          0 MSHR_MERGE:          0
cpu1->LLC PREFETCH     ACCESS:          0 HIT:          0 MISS:          0 MSHR_MERGE:          0
cpu1->LLC WRITE        ACCESS:          0 HIT:          0 MISS:          0 MSHR_MERGE:          0
cpu1->LLC TRANSLATION  ACCESS:     387532 HIT:       2418 MISS:     385114 MSHR_MERGE:          0
cpu1->LLC PREFETCH REQUESTED:          0 ISSUED:          0 USEFUL:          0 USELESS:          0
cpu1->LLC AVERAGE MISS LATENCY: 973.1 cycles
LLC COHERENCE INVALIDATIONS:     100546
LLC COHERENCE WRITE-HIT OTHER-SHARER EVENTS:     100546

DRAM Statistics

Channel 0 RQ ROW_BUFFER_HIT:     272993
  ROW_BUFFER_MISS:    5894478
  AVG DBUS CONGESTED CYCLE: 7.385
Channel 0 WQ ROW_BUFFER_HIT:     586068
  ROW_BUFFER_MISS:    2904009
  FULL:          0
Channel 0 REFRESHES ISSUED:      32750

VMEM ALIASED FILLS (cross-CPU shared-page hits): 7874
