[VMEM] WARNING: physical memory size is smaller than virtual memory size.

*** ChampSim Multicore Out-of-Order Simulator ***
Warmup Instructions: 50000000
Simulation Instructions: 100000000
Number of CPUs: 4
Page size: 4096

Off-chip DRAM Size: 16 GiB Channels: 1 Width: 64-bit Data Rate: 3205 MT/s
*** Reached end of trace: (2, "traces/canneal_big2.champsimtrace")
*** Reached end of trace: (3, "traces/canneal_big3.champsimtrace")
*** Reached end of trace: (0, "traces/canneal_big0.champsimtrace")
*** Reached end of trace: (2, "traces/canneal_big2.champsimtrace")
*** Reached end of trace: (3, "traces/canneal_big3.champsimtrace")
Heartbeat CPU 2 instructions: 10000001 cycles: 2504204 heartbeat IPC: 3.993 cumulative IPC: 3.993 (Simulation time: 00 hr 05 min 13 sec)
Heartbeat CPU 3 instructions: 10000001 cycles: 2504251 heartbeat IPC: 3.993 cumulative IPC: 3.993 (Simulation time: 00 hr 05 min 13 sec)
*** Reached end of trace: (2, "traces/canneal_big2.champsimtrace")
*** Reached end of trace: (3, "traces/canneal_big3.champsimtrace")
*** Reached end of trace: (0, "traces/canneal_big0.champsimtrace")
Heartbeat CPU 0 instructions: 10000003 cycles: 4037082 heartbeat IPC: 2.477 cumulative IPC: 2.477 (Simulation time: 00 hr 08 min 27 sec)
*** Reached end of trace: (1, "traces/canneal_big1.champsimtrace")
*** Reached end of trace: (2, "traces/canneal_big2.champsimtrace")
*** Reached end of trace: (3, "traces/canneal_big3.champsimtrace")
Heartbeat CPU 2 instructions: 20000001 cycles: 5004204 heartbeat IPC: 4 cumulative IPC: 3.997 (Simulation time: 00 hr 10 min 35 sec)
Heartbeat CPU 3 instructions: 20000001 cycles: 5004251 heartbeat IPC: 4 cumulative IPC: 3.997 (Simulation time: 00 hr 10 min 35 sec)
*** Reached end of trace: (0, "traces/canneal_big0.champsimtrace")
*** Reached end of trace: (2, "traces/canneal_big2.champsimtrace")
*** Reached end of trace: (3, "traces/canneal_big3.champsimtrace")
*** Reached end of trace: (2, "traces/canneal_big2.champsimtrace")
*** Reached end of trace: (3, "traces/canneal_big3.champsimtrace")
Heartbeat CPU 2 instructions: 30000001 cycles: 7504204 heartbeat IPC: 4 cumulative IPC: 3.998 (Simulation time: 00 hr 15 min 56 sec)
Heartbeat CPU 3 instructions: 30000001 cycles: 7504251 heartbeat IPC: 4 cumulative IPC: 3.998 (Simulation time: 00 hr 15 min 56 sec)
*** Reached end of trace: (1, "traces/canneal_big1.champsimtrace")
Heartbeat CPU 1 instructions: 10000002 cycles: 7814868 heartbeat IPC: 1.28 cumulative IPC: 1.28 (Simulation time: 00 hr 16 min 34 sec)
*** Reached end of trace: (0, "traces/canneal_big0.champsimtrace")
Heartbeat CPU 0 instructions: 20000006 cycles: 7886853 heartbeat IPC: 2.598 cumulative IPC: 2.536 (Simulation time: 00 hr 16 min 43 sec)
*** Reached end of trace: (2, "traces/canneal_big2.champsimtrace")
*** Reached end of trace: (3, "traces/canneal_big3.champsimtrace")
*** Reached end of trace: (0, "traces/canneal_big0.champsimtrace")
*** Reached end of trace: (2, "traces/canneal_big2.champsimtrace")
*** Reached end of trace: (3, "traces/canneal_big3.champsimtrace")
Heartbeat CPU 2 instructions: 40000001 cycles: 10004204 heartbeat IPC: 4 cumulative IPC: 3.998 (Simulation time: 00 hr 21 min 21 sec)
Heartbeat CPU 3 instructions: 40000001 cycles: 10004251 heartbeat IPC: 4 cumulative IPC: 3.998 (Simulation time: 00 hr 21 min 21 sec)
*** Reached end of trace: (1, "traces/canneal_big1.champsimtrace")
*** Reached end of trace: (2, "traces/canneal_big2.champsimtrace")
*** Reached end of trace: (3, "traces/canneal_big3.champsimtrace")
*** Reached end of trace: (0, "traces/canneal_big0.champsimtrace")
Heartbeat CPU 0 instructions: 30000009 cycles: 11736544 heartbeat IPC: 2.598 cumulative IPC: 2.556 (Simulation time: 00 hr 25 min 05 sec)
*** Reached end of trace: (2, "traces/canneal_big2.champsimtrace")
*** Reached end of trace: (3, "traces/canneal_big3.champsimtrace")
Heartbeat CPU 2 instructions: 50000001 cycles: 12504204 heartbeat IPC: 4 cumulative IPC: 3.999 (Simulation time: 00 hr 26 min 49 sec)
Warmup finished CPU 2 instructions: 50000001 cycles: 12504204 cumulative IPC: 3.999 (Simulation time: 00 hr 26 min 49 sec)
Heartbeat CPU 3 instructions: 50000001 cycles: 12504251 heartbeat IPC: 4 cumulative IPC: 3.999 (Simulation time: 00 hr 26 min 49 sec)
Warmup finished CPU 3 instructions: 50000001 cycles: 12504251 cumulative IPC: 3.999 (Simulation time: 00 hr 26 min 49 sec)
*** Reached end of trace: (1, "traces/canneal_big1.champsimtrace")
Heartbeat CPU 1 instructions: 20000004 cycles: 13495579 heartbeat IPC: 1.76 cumulative IPC: 1.482 (Simulation time: 00 hr 29 min 00 sec)
*** Reached end of trace: (0, "traces/canneal_big0.champsimtrace")
*** Reached end of trace: (2, "traces/canneal_big2.champsimtrace")
*** Reached end of trace: (3, "traces/canneal_big3.champsimtrace")
*** Reached end of trace: (2, "traces/canneal_big2.champsimtrace")
*** Reached end of trace: (3, "traces/canneal_big3.champsimtrace")
Heartbeat CPU 2 instructions: 60000001 cycles: 15004204 heartbeat IPC: 4 cumulative IPC: 3.999 (Simulation time: 00 hr 32 min 16 sec)
Heartbeat CPU 3 instructions: 60000001 cycles: 15004251 heartbeat IPC: 4 cumulative IPC: 3.999 (Simulation time: 00 hr 32 min 16 sec)
*** Reached end of trace: (0, "traces/canneal_big0.champsimtrace")
Heartbeat CPU 0 instructions: 40000012 cycles: 15586235 heartbeat IPC: 2.598 cumulative IPC: 2.566 (Simulation time: 00 hr 33 min 31 sec)
*** Reached end of trace: (2, "traces/canneal_big2.champsimtrace")
*** Reached end of trace: (3, "traces/canneal_big3.champsimtrace")
*** Reached end of trace: (1, "traces/canneal_big1.champsimtrace")
*** Reached end of trace: (2, "traces/canneal_big2.champsimtrace")
*** Reached end of trace: (3, "traces/canneal_big3.champsimtrace")
Heartbeat CPU 2 instructions: 70000001 cycles: 17504204 heartbeat IPC: 4 cumulative IPC: 3.999 (Simulation time: 00 hr 37 min 40 sec)
Heartbeat CPU 3 instructions: 70000001 cycles: 17504251 heartbeat IPC: 4 cumulative IPC: 3.999 (Simulation time: 00 hr 37 min 40 sec)
*** Reached end of trace: (0, "traces/canneal_big0.champsimtrace")
*** Reached end of trace: (2, "traces/canneal_big2.champsimtrace")
*** Reached end of trace: (3, "traces/canneal_big3.champsimtrace")
*** Reached end of trace: (1, "traces/canneal_big1.champsimtrace")
Heartbeat CPU 1 instructions: 30000004 cycles: 19176380 heartbeat IPC: 1.76 cumulative IPC: 1.564 (Simulation time: 00 hr 41 min 22 sec)
*** Reached end of trace: (0, "traces/canneal_big0.champsimtrace")
Warmup finished CPU 0 instructions: 50000000 cycles: 19435923 cumulative IPC: 2.573 (Simulation time: 00 hr 41 min 56 sec)
Heartbeat CPU 0 instructions: 50000015 cycles: 19435926 heartbeat IPC: 2.598 cumulative IPC: 2.573 (Simulation time: 00 hr 41 min 56 sec)
*** Reached end of trace: (2, "traces/canneal_big2.champsimtrace")
*** Reached end of trace: (3, "traces/canneal_big3.champsimtrace")
Heartbeat CPU 2 instructions: 80000001 cycles: 20004204 heartbeat IPC: 4 cumulative IPC: 3.999 (Simulation time: 00 hr 43 min 09 sec)
Heartbeat CPU 3 instructions: 80000001 cycles: 20004251 heartbeat IPC: 4 cumulative IPC: 3.999 (Simulation time: 00 hr 43 min 09 sec)
*** Reached end of trace: (2, "traces/canneal_big2.champsimtrace")
*** Reached end of trace: (3, "traces/canneal_big3.champsimtrace")
*** Reached end of trace: (0, "traces/canneal_big0.champsimtrace")
*** Reached end of trace: (1, "traces/canneal_big1.champsimtrace")
*** Reached end of trace: (2, "traces/canneal_big2.champsimtrace")
*** Reached end of trace: (3, "traces/canneal_big3.champsimtrace")
Heartbeat CPU 2 instructions: 90000001 cycles: 22504204 heartbeat IPC: 4 cumulative IPC: 3.999 (Simulation time: 00 hr 48 min 34 sec)
Heartbeat CPU 3 instructions: 90000001 cycles: 22504251 heartbeat IPC: 4 cumulative IPC: 3.999 (Simulation time: 00 hr 48 min 34 sec)
*** Reached end of trace: (0, "traces/canneal_big0.champsimtrace")
Heartbeat CPU 0 instructions: 60000018 cycles: 23285617 heartbeat IPC: 2.598 cumulative IPC: 2.577 (Simulation time: 00 hr 50 min 16 sec)
*** Reached end of trace: (2, "traces/canneal_big2.champsimtrace")
*** Reached end of trace: (3, "traces/canneal_big3.champsimtrace")
*** Reached end of trace: (1, "traces/canneal_big1.champsimtrace")
Heartbeat CPU 1 instructions: 40000006 cycles: 24857165 heartbeat IPC: 1.76 cumulative IPC: 1.609 (Simulation time: 00 hr 53 min 40 sec)
*** Reached end of trace: (2, "traces/canneal_big2.champsimtrace")
*** Reached end of trace: (3, "traces/canneal_big3.champsimtrace")
Heartbeat CPU 2 instructions: 100000001 cycles: 25004204 heartbeat IPC: 4 cumulative IPC: 3.999 (Simulation time: 00 hr 53 min 59 sec)
Heartbeat CPU 3 instructions: 100000001 cycles: 25004251 heartbeat IPC: 4 cumulative IPC: 3.999 (Simulation time: 00 hr 53 min 59 sec)
*** Reached end of trace: (0, "traces/canneal_big0.champsimtrace")
*** Reached end of trace: (2, "traces/canneal_big2.champsimtrace")
*** Reached end of trace: (3, "traces/canneal_big3.champsimtrace")
*** Reached end of trace: (0, "traces/canneal_big0.champsimtrace")
Heartbeat CPU 0 instructions: 70000021 cycles: 27135308 heartbeat IPC: 2.598 cumulative IPC: 2.58 (Simulation time: 00 hr 58 min 35 sec)
*** Reached end of trace: (2, "traces/canneal_big2.champsimtrace")
*** Reached end of trace: (3, "traces/canneal_big3.champsimtrace")
Heartbeat CPU 2 instructions: 110000001 cycles: 27504204 heartbeat IPC: 4 cumulative IPC: 3.999 (Simulation time: 00 hr 59 min 27 sec)
Heartbeat CPU 3 instructions: 110000001 cycles: 27504251 heartbeat IPC: 4 cumulative IPC: 3.999 (Simulation time: 00 hr 59 min 27 sec)
*** Reached end of trace: (1, "traces/canneal_big1.champsimtrace")
*** Reached end of trace: (2, "traces/canneal_big2.champsimtrace")
*** Reached end of trace: (3, "traces/canneal_big3.champsimtrace")
*** Reached end of trace: (0, "traces/canneal_big0.champsimtrace")
*** Reached end of trace: (2, "traces/canneal_big2.champsimtrace")
*** Reached end of trace: (3, "traces/canneal_big3.champsimtrace")
Heartbeat CPU 2 instructions: 120000001 cycles: 30004204 heartbeat IPC: 4 cumulative IPC: 3.999 (Simulation time: 01 hr 04 min 46 sec)
Heartbeat CPU 3 instructions: 120000001 cycles: 30004251 heartbeat IPC: 4 cumulative IPC: 3.999 (Simulation time: 01 hr 04 min 46 sec)
*** Reached end of trace: (1, "traces/canneal_big1.champsimtrace")
Warmup finished CPU 1 instructions: 50000000 cycles: 30538060 cumulative IPC: 1.637 (Simulation time: 01 hr 05 min 54 sec)
Warmup complete CPU 3 instructions: 122135237 cycles: 30538060 cumulative IPC: 3.999 (Simulation time: 01 hr 05 min 54 sec)
Warmup complete CPU 2 instructions: 122135425 cycles: 30538060 cumulative IPC: 3.999 (Simulation time: 01 hr 05 min 54 sec)
Warmup complete CPU 1 instructions: 50000000 cycles: 30538060 cumulative IPC: 1.637 (Simulation time: 01 hr 05 min 54 sec)
Warmup complete CPU 0 instructions: 78920339 cycles: 30538060 cumulative IPC: 2.584 (Simulation time: 01 hr 05 min 54 sec)
Heartbeat CPU 1 instructions: 50000008 cycles: 30538412 heartbeat IPC: 1.76 cumulative IPC: 0.02273 (Simulation time: 01 hr 05 min 54 sec)
*** Reached end of trace: (0, "traces/canneal_big0.champsimtrace")
Heartbeat CPU 0 instructions: 80000024 cycles: 30954274 heartbeat IPC: 2.619 cumulative IPC: 2.594 (Simulation time: 01 hr 06 min 47 sec)
*** Reached end of trace: (2, "traces/canneal_big2.champsimtrace")
*** Reached end of trace: (3, "traces/canneal_big3.champsimtrace")
*** Reached end of trace: (2, "traces/canneal_big2.champsimtrace")
*** Reached end of trace: (3, "traces/canneal_big3.champsimtrace")
Heartbeat CPU 2 instructions: 130000001 cycles: 32504204 heartbeat IPC: 4 cumulative IPC: 4 (Simulation time: 01 hr 10 min 04 sec)
Heartbeat CPU 3 instructions: 130000001 cycles: 32504251 heartbeat IPC: 4 cumulative IPC: 4 (Simulation time: 01 hr 10 min 04 sec)
*** Reached end of trace: (0, "traces/canneal_big0.champsimtrace")
*** Reached end of trace: (2, "traces/canneal_big2.champsimtrace")
*** Reached end of trace: (3, "traces/canneal_big3.champsimtrace")
*** Reached end of trace: (2, "traces/canneal_big2.champsimtrace")
*** Reached end of trace: (3, "traces/canneal_big3.champsimtrace")
Heartbeat CPU 2 instructions: 140000001 cycles: 35004204 heartbeat IPC: 4 cumulative IPC: 4 (Simulation time: 01 hr 15 min 21 sec)
Heartbeat CPU 3 instructions: 140000001 cycles: 35004251 heartbeat IPC: 4 cumulative IPC: 4 (Simulation time: 01 hr 15 min 21 sec)
*** Reached end of trace: (0, "traces/canneal_big0.champsimtrace")
Heartbeat CPU 0 instructions: 90000027 cycles: 35611827 heartbeat IPC: 2.147 cumulative IPC: 2.184 (Simulation time: 01 hr 16 min 37 sec)
*** Reached end of trace: (2, "traces/canneal_big2.champsimtrace")
*** Reached end of trace: (3, "traces/canneal_big3.champsimtrace")
*** Reached end of trace: (2, "traces/canneal_big2.champsimtrace")
*** Reached end of trace: (3, "traces/canneal_big3.champsimtrace")
Heartbeat CPU 2 instructions: 150000001 cycles: 37504204 heartbeat IPC: 4 cumulative IPC: 4 (Simulation time: 01 hr 20 min 37 sec)
Heartbeat CPU 3 instructions: 150000001 cycles: 37504251 heartbeat IPC: 4 cumulative IPC: 4 (Simulation time: 01 hr 20 min 37 sec)
*** Reached end of trace: (0, "traces/canneal_big0.champsimtrace")
*** Reached end of trace: (2, "traces/canneal_big2.champsimtrace")
*** Reached end of trace: (3, "traces/canneal_big3.champsimtrace")
*** Reached end of trace: (2, "traces/canneal_big2.champsimtrace")
*** Reached end of trace: (3, "traces/canneal_big3.champsimtrace")
Heartbeat CPU 2 instructions: 160000001 cycles: 40004204 heartbeat IPC: 4 cumulative IPC: 4 (Simulation time: 01 hr 26 min 01 sec)
Heartbeat CPU 3 instructions: 160000001 cycles: 40004251 heartbeat IPC: 4 cumulative IPC: 4 (Simulation time: 01 hr 26 min 01 sec)
*** Reached end of trace: (0, "traces/canneal_big0.champsimtrace")
Heartbeat CPU 0 instructions: 100000030 cycles: 40266771 heartbeat IPC: 2.148 cumulative IPC: 2.167 (Simulation time: 01 hr 26 min 36 sec)
*** Reached end of trace: (2, "traces/canneal_big2.champsimtrace")
*** Reached end of trace: (3, "traces/canneal_big3.champsimtrace")
*** Reached end of trace: (2, "traces/canneal_big2.champsimtrace")
*** Reached end of trace: (3, "traces/canneal_big3.champsimtrace")
Heartbeat CPU 2 instructions: 170000001 cycles: 42504204 heartbeat IPC: 4 cumulative IPC: 4 (Simulation time: 01 hr 31 min 21 sec)
Heartbeat CPU 3 instructions: 170000001 cycles: 42504251 heartbeat IPC: 4 cumulative IPC: 4 (Simulation time: 01 hr 31 min 21 sec)
*** Reached end of trace: (0, "traces/canneal_big0.champsimtrace")
*** Reached end of trace: (2, "traces/canneal_big2.champsimtrace")
*** Reached end of trace: (3, "traces/canneal_big3.champsimtrace")
*** Reached end of trace: (0, "traces/canneal_big0.champsimtrace")
Heartbeat CPU 0 instructions: 110000033 cycles: 44897739 heartbeat IPC: 2.159 cumulative IPC: 2.164 (Simulation time: 01 hr 36 min 18 sec)
*** Reached end of trace: (2, "traces/canneal_big2.champsimtrace")
*** Reached end of trace: (3, "traces/canneal_big3.champsimtrace")
Heartbeat CPU 2 instructions: 180000001 cycles: 45004204 heartbeat IPC: 4 cumulative IPC: 4 (Simulation time: 01 hr 36 min 32 sec)
Heartbeat CPU 3 instructions: 180000001 cycles: 45004251 heartbeat IPC: 4 cumulative IPC: 4 (Simulation time: 01 hr 36 min 32 sec)
*** Reached end of trace: (2, "traces/canneal_big2.champsimtrace")
*** Reached end of trace: (3, "traces/canneal_big3.champsimtrace")
*** Reached end of trace: (0, "traces/canneal_big0.champsimtrace")
*** Reached end of trace: (2, "traces/canneal_big2.champsimtrace")
*** Reached end of trace: (3, "traces/canneal_big3.champsimtrace")
Heartbeat CPU 2 instructions: 190000001 cycles: 47504204 heartbeat IPC: 4 cumulative IPC: 4 (Simulation time: 01 hr 41 min 57 sec)
Heartbeat CPU 3 instructions: 190000001 cycles: 47504251 heartbeat IPC: 4 cumulative IPC: 4 (Simulation time: 01 hr 41 min 57 sec)
*** Reached end of trace: (2, "traces/canneal_big2.champsimtrace")
*** Reached end of trace: (3, "traces/canneal_big3.champsimtrace")
*** Reached end of trace: (0, "traces/canneal_big0.champsimtrace")
Heartbeat CPU 0 instructions: 120000036 cycles: 49519898 heartbeat IPC: 2.163 cumulative IPC: 2.164 (Simulation time: 01 hr 46 min 10 sec)
*** Reached end of trace: (1, "traces/canneal_big1.champsimtrace")
*** Reached end of trace: (2, "traces/canneal_big2.champsimtrace")
*** Reached end of trace: (3, "traces/canneal_big3.champsimtrace")
Heartbeat CPU 2 instructions: 200000001 cycles: 50004204 heartbeat IPC: 4 cumulative IPC: 4 (Simulation time: 01 hr 47 min 10 sec)
Heartbeat CPU 3 instructions: 200000001 cycles: 50004251 heartbeat IPC: 4 cumulative IPC: 4 (Simulation time: 01 hr 47 min 10 sec)
*** Reached end of trace: (2, "traces/canneal_big2.champsimtrace")
*** Reached end of trace: (3, "traces/canneal_big3.champsimtrace")
*** Reached end of trace: (0, "traces/canneal_big0.champsimtrace")
*** Reached end of trace: (2, "traces/canneal_big2.champsimtrace")
*** Reached end of trace: (3, "traces/canneal_big3.champsimtrace")
Heartbeat CPU 2 instructions: 210000001 cycles: 52504204 heartbeat IPC: 4 cumulative IPC: 4 (Simulation time: 01 hr 52 min 17 sec)
Heartbeat CPU 3 instructions: 210000001 cycles: 52504251 heartbeat IPC: 4 cumulative IPC: 4 (Simulation time: 01 hr 52 min 17 sec)
*** Reached end of trace: (2, "traces/canneal_big2.champsimtrace")
*** Reached end of trace: (3, "traces/canneal_big3.champsimtrace")
*** Reached end of trace: (0, "traces/canneal_big0.champsimtrace")
Heartbeat CPU 0 instructions: 130000036 cycles: 54194032 heartbeat IPC: 2.139 cumulative IPC: 2.159 (Simulation time: 01 hr 55 min 42 sec)
*** Reached end of trace: (2, "traces/canneal_big2.champsimtrace")
*** Reached end of trace: (3, "traces/canneal_big3.champsimtrace")
Heartbeat CPU 2 instructions: 220000001 cycles: 55004204 heartbeat IPC: 4 cumulative IPC: 4 (Simulation time: 01 hr 57 min 16 sec)
Heartbeat CPU 3 instructions: 220000001 cycles: 55004251 heartbeat IPC: 4 cumulative IPC: 4 (Simulation time: 01 hr 57 min 16 sec)
Simulation finished CPU 3 instructions: 100000000 cycles: 25000000 cumulative IPC: 4 (Simulation time: 01 hr 58 min 18 sec)
Simulation finished CPU 2 instructions: 100000000 cycles: 25000000 cumulative IPC: 4 (Simulation time: 01 hr 58 min 18 sec)
*** Reached end of trace: (2, "traces/canneal_big2.champsimtrace")
*** Reached end of trace: (3, "traces/canneal_big3.champsimtrace")
*** Reached end of trace: (0, "traces/canneal_big0.champsimtrace")
*** Reached end of trace: (2, "traces/canneal_big2.champsimtrace")
*** Reached end of trace: (3, "traces/canneal_big3.champsimtrace")
Heartbeat CPU 2 instructions: 230000001 cycles: 57504204 heartbeat IPC: 4 cumulative IPC: 4 (Simulation time: 02 hr 02 min 12 sec)
Heartbeat CPU 3 instructions: 230000001 cycles: 57504251 heartbeat IPC: 4 cumulative IPC: 4 (Simulation time: 02 hr 02 min 12 sec)
*** Reached end of trace: (2, "traces/canneal_big2.champsimtrace")
*** Reached end of trace: (3, "traces/canneal_big3.champsimtrace")
*** Reached end of trace: (0, "traces/canneal_big0.champsimtrace")
Heartbeat CPU 0 instructions: 140000037 cycles: 58832004 heartbeat IPC: 2.156 cumulative IPC: 2.159 (Simulation time: 02 hr 04 min 50 sec)
*** Reached end of trace: (2, "traces/canneal_big2.champsimtrace")
*** Reached end of trace: (3, "traces/canneal_big3.champsimtrace")
Heartbeat CPU 2 instructions: 240000001 cycles: 60004204 heartbeat IPC: 4 cumulative IPC: 4 (Simulation time: 02 hr 07 min 12 sec)
Heartbeat CPU 3 instructions: 240000001 cycles: 60004251 heartbeat IPC: 4 cumulative IPC: 4 (Simulation time: 02 hr 07 min 12 sec)
*** Reached end of trace: (0, "traces/canneal_big0.champsimtrace")
*** Reached end of trace: (2, "traces/canneal_big2.champsimtrace")
*** Reached end of trace: (3, "traces/canneal_big3.champsimtrace")
*** Reached end of trace: (2, "traces/canneal_big2.champsimtrace")
*** Reached end of trace: (3, "traces/canneal_big3.champsimtrace")
Heartbeat CPU 2 instructions: 250000001 cycles: 62504204 heartbeat IPC: 4 cumulative IPC: 4 (Simulation time: 02 hr 12 min 08 sec)
Heartbeat CPU 3 instructions: 250000001 cycles: 62504251 heartbeat IPC: 4 cumulative IPC: 4 (Simulation time: 02 hr 12 min 08 sec)
*** Reached end of trace: (0, "traces/canneal_big0.champsimtrace")
Heartbeat CPU 0 instructions: 150000037 cycles: 63468905 heartbeat IPC: 2.157 cumulative IPC: 2.158 (Simulation time: 02 hr 14 min 04 sec)
*** Reached end of trace: (2, "traces/canneal_big2.champsimtrace")
*** Reached end of trace: (3, "traces/canneal_big3.champsimtrace")
*** Reached end of trace: (2, "traces/canneal_big2.champsimtrace")
*** Reached end of trace: (3, "traces/canneal_big3.champsimtrace")
Heartbeat CPU 2 instructions: 260000001 cycles: 65004204 heartbeat IPC: 4 cumulative IPC: 4 (Simulation time: 02 hr 17 min 06 sec)
Heartbeat CPU 3 instructions: 260000001 cycles: 65004251 heartbeat IPC: 4 cumulative IPC: 4 (Simulation time: 02 hr 17 min 06 sec)
*** Reached end of trace: (0, "traces/canneal_big0.champsimtrace")
*** Reached end of trace: (2, "traces/canneal_big2.champsimtrace")
*** Reached end of trace: (3, "traces/canneal_big3.champsimtrace")
*** Reached end of trace: (2, "traces/canneal_big2.champsimtrace")
*** Reached end of trace: (3, "traces/canneal_big3.champsimtrace")
Heartbeat CPU 2 instructions: 270000001 cycles: 67504204 heartbeat IPC: 4 cumulative IPC: 4 (Simulation time: 02 hr 22 min 05 sec)
Heartbeat CPU 3 instructions: 270000001 cycles: 67504251 heartbeat IPC: 4 cumulative IPC: 4 (Simulation time: 02 hr 22 min 05 sec)
*** Reached end of trace: (0, "traces/canneal_big0.champsimtrace")
Heartbeat CPU 0 instructions: 160000040 cycles: 68098286 heartbeat IPC: 2.16 cumulative IPC: 2.159 (Simulation time: 02 hr 23 min 16 sec)
*** Reached end of trace: (2, "traces/canneal_big2.champsimtrace")
*** Reached end of trace: (3, "traces/canneal_big3.champsimtrace")
*** Reached end of trace: (1, "traces/canneal_big1.champsimtrace")
Heartbeat CPU 1 instructions: 60000010 cycles: 69654548 heartbeat IPC: 0.2556 cumulative IPC: 0.2556 (Simulation time: 02 hr 26 min 23 sec)
*** Reached end of trace: (2, "traces/canneal_big2.champsimtrace")
*** Reached end of trace: (3, "traces/canneal_big3.champsimtrace")
Heartbeat CPU 2 instructions: 280000001 cycles: 70004204 heartbeat IPC: 4 cumulative IPC: 4 (Simulation time: 02 hr 27 min 06 sec)
Heartbeat CPU 3 instructions: 280000001 cycles: 70004251 heartbeat IPC: 4 cumulative IPC: 4 (Simulation time: 02 hr 27 min 06 sec)
*** Reached end of trace: (0, "traces/canneal_big0.champsimtrace")
*** Reached end of trace: (2, "traces/canneal_big2.champsimtrace")
*** Reached end of trace: (3, "traces/canneal_big3.champsimtrace")
*** Reached end of trace: (2, "traces/canneal_big2.champsimtrace")
*** Reached end of trace: (3, "traces/canneal_big3.champsimtrace")
Heartbeat CPU 2 instructions: 290000001 cycles: 72504204 heartbeat IPC: 4 cumulative IPC: 4 (Simulation time: 02 hr 32 min 08 sec)
Heartbeat CPU 3 instructions: 290000001 cycles: 72504251 heartbeat IPC: 4 cumulative IPC: 4 (Simulation time: 02 hr 32 min 08 sec)
*** Reached end of trace: (0, "traces/canneal_big0.champsimtrace")
Heartbeat CPU 0 instructions: 170000043 cycles: 72754672 heartbeat IPC: 2.148 cumulative IPC: 2.157 (Simulation time: 02 hr 32 min 38 sec)
*** Reached end of trace: (2, "traces/canneal_big2.champsimtrace")
*** Reached end of trace: (3, "traces/canneal_big3.champsimtrace")
*** Reached end of trace: (2, "traces/canneal_big2.champsimtrace")
*** Reached end of trace: (3, "traces/canneal_big3.champsimtrace")
Heartbeat CPU 2 instructions: 300000001 cycles: 75004204 heartbeat IPC: 4 cumulative IPC: 4 (Simulation time: 02 hr 37 min 06 sec)
Heartbeat CPU 3 instructions: 300000001 cycles: 75004251 heartbeat IPC: 4 cumulative IPC: 4 (Simulation time: 02 hr 37 min 06 sec)
*** Reached end of trace: (0, "traces/canneal_big0.champsimtrace")
*** Reached end of trace: (2, "traces/canneal_big2.champsimtrace")
*** Reached end of trace: (3, "traces/canneal_big3.champsimtrace")
Simulation finished CPU 0 instructions: 100000000 cycles: 46447501 cumulative IPC: 2.153 (Simulation time: 02 hr 40 min 37 sec)
*** Reached end of trace: (0, "traces/canneal_big0.champsimtrace")
Heartbeat CPU 0 instructions: 180000044 cycles: 77398272 heartbeat IPC: 2.154 cumulative IPC: 2.157 (Simulation time: 02 hr 41 min 21 sec)
*** Reached end of trace: (2, "traces/canneal_big2.champsimtrace")
*** Reached end of trace: (3, "traces/canneal_big3.champsimtrace")
Heartbeat CPU 2 instructions: 310000001 cycles: 77504204 heartbeat IPC: 4 cumulative IPC: 4 (Simulation time: 02 hr 41 min 33 sec)
Heartbeat CPU 3 instructions: 310000001 cycles: 77504251 heartbeat IPC: 4 cumulative IPC: 4 (Simulation time: 02 hr 41 min 33 sec)
*** Reached end of trace: (2, "traces/canneal_big2.champsimtrace")
*** Reached end of trace: (3, "traces/canneal_big3.champsimtrace")
*** Reached end of trace: (0, "traces/canneal_big0.champsimtrace")
*** Reached end of trace: (2, "traces/canneal_big2.champsimtrace")
*** Reached end of trace: (3, "traces/canneal_big3.champsimtrace")
Heartbeat CPU 2 instructions: 320000001 cycles: 80004204 heartbeat IPC: 4 cumulative IPC: 4 (Simulation time: 02 hr 46 min 00 sec)
Heartbeat CPU 3 instructions: 320000001 cycles: 80004251 heartbeat IPC: 4 cumulative IPC: 4 (Simulation time: 02 hr 46 min 00 sec)
*** Reached end of trace: (2, "traces/canneal_big2.champsimtrace")
*** Reached end of trace: (3, "traces/canneal_big3.champsimtrace")
*** Reached end of trace: (0, "traces/canneal_big0.champsimtrace")
Heartbeat CPU 0 instructions: 190000044 cycles: 82046998 heartbeat IPC: 2.151 cumulative IPC: 2.157 (Simulation time: 02 hr 50 min 00 sec)
*** Reached end of trace: (2, "traces/canneal_big2.champsimtrace")
*** Reached end of trace: (3, "traces/canneal_big3.champsimtrace")
Heartbeat CPU 2 instructions: 330000001 cycles: 82504204 heartbeat IPC: 4 cumulative IPC: 4 (Simulation time: 02 hr 50 min 56 sec)
Heartbeat CPU 3 instructions: 330000001 cycles: 82504251 heartbeat IPC: 4 cumulative IPC: 4 (Simulation time: 02 hr 50 min 56 sec)
*** Reached end of trace: (2, "traces/canneal_big2.champsimtrace")
*** Reached end of trace: (3, "traces/canneal_big3.champsimtrace")
*** Reached end of trace: (0, "traces/canneal_big0.champsimtrace")
*** Reached end of trace: (2, "traces/canneal_big2.champsimtrace")
*** Reached end of trace: (3, "traces/canneal_big3.champsimtrace")
Heartbeat CPU 2 instructions: 340000001 cycles: 85004204 heartbeat IPC: 4 cumulative IPC: 4 (Simulation time: 02 hr 56 min 02 sec)
Heartbeat CPU 3 instructions: 340000001 cycles: 85004251 heartbeat IPC: 4 cumulative IPC: 4 (Simulation time: 02 hr 56 min 02 sec)
*** Reached end of trace: (2, "traces/canneal_big2.champsimtrace")
*** Reached end of trace: (3, "traces/canneal_big3.champsimtrace")
*** Reached end of trace: (0, "traces/canneal_big0.champsimtrace")
Heartbeat CPU 0 instructions: 200000045 cycles: 86671268 heartbeat IPC: 2.163 cumulative IPC: 2.157 (Simulation time: 02 hr 59 min 24 sec)
*** Reached end of trace: (2, "traces/canneal_big2.champsimtrace")
*** Reached end of trace: (3, "traces/canneal_big3.champsimtrace")
Heartbeat CPU 2 instructions: 350000001 cycles: 87504204 heartbeat IPC: 4 cumulative IPC: 4 (Simulation time: 03 hr 01 min 05 sec)
Heartbeat CPU 3 instructions: 350000001 cycles: 87504251 heartbeat IPC: 4 cumulative IPC: 4 (Simulation time: 03 hr 01 min 05 sec)
*** Reached end of trace: (2, "traces/canneal_big2.champsimtrace")
*** Reached end of trace: (3, "traces/canneal_big3.champsimtrace")
*** Reached end of trace: (0, "traces/canneal_big0.champsimtrace")
*** Reached end of trace: (1, "traces/canneal_big1.champsimtrace")
*** Reached end of trace: (2, "traces/canneal_big2.champsimtrace")
*** Reached end of trace: (3, "traces/canneal_big3.champsimtrace")
Heartbeat CPU 2 instructions: 360000001 cycles: 90004204 heartbeat IPC: 4 cumulative IPC: 4 (Simulation time: 03 hr 06 min 13 sec)
Heartbeat CPU 3 instructions: 360000001 cycles: 90004251 heartbeat IPC: 4 cumulative IPC: 4 (Simulation time: 03 hr 06 min 13 sec)
*** Reached end of trace: (2, "traces/canneal_big2.champsimtrace")
*** Reached end of trace: (3, "traces/canneal_big3.champsimtrace")
*** Reached end of trace: (0, "traces/canneal_big0.champsimtrace")
Heartbeat CPU 0 instructions: 210000048 cycles: 91311036 heartbeat IPC: 2.155 cumulative IPC: 2.157 (Simulation time: 03 hr 08 min 50 sec)
*** Reached end of trace: (2, "traces/canneal_big2.champsimtrace")
*** Reached end of trace: (3, "traces/canneal_big3.champsimtrace")
Heartbeat CPU 2 instructions: 370000001 cycles: 92504204 heartbeat IPC: 4 cumulative IPC: 4 (Simulation time: 03 hr 11 min 15 sec)
Heartbeat CPU 3 instructions: 370000001 cycles: 92504251 heartbeat IPC: 4 cumulative IPC: 4 (Simulation time: 03 hr 11 min 15 sec)
*** Reached end of trace: (0, "traces/canneal_big0.champsimtrace")
*** Reached end of trace: (2, "traces/canneal_big2.champsimtrace")
*** Reached end of trace: (3, "traces/canneal_big3.champsimtrace")
*** Reached end of trace: (2, "traces/canneal_big2.champsimtrace")
*** Reached end of trace: (3, "traces/canneal_big3.champsimtrace")
Heartbeat CPU 2 instructions: 380000001 cycles: 95004204 heartbeat IPC: 4 cumulative IPC: 4 (Simulation time: 03 hr 16 min 16 sec)
Heartbeat CPU 3 instructions: 380000001 cycles: 95004251 heartbeat IPC: 4 cumulative IPC: 4 (Simulation time: 03 hr 16 min 16 sec)
*** Reached end of trace: (0, "traces/canneal_big0.champsimtrace")
Heartbeat CPU 0 instructions: 220000051 cycles: 95969762 heartbeat IPC: 2.147 cumulative IPC: 2.156 (Simulation time: 03 hr 18 min 13 sec)
*** Reached end of trace: (2, "traces/canneal_big2.champsimtrace")
*** Reached end of trace: (3, "traces/canneal_big3.champsimtrace")
*** Reached end of trace: (2, "traces/canneal_big2.champsimtrace")
*** Reached end of trace: (3, "traces/canneal_big3.champsimtrace")
Heartbeat CPU 2 instructions: 390000001 cycles: 97504204 heartbeat IPC: 4 cumulative IPC: 4 (Simulation time: 03 hr 21 min 20 sec)
Heartbeat CPU 3 instructions: 390000001 cycles: 97504251 heartbeat IPC: 4 cumulative IPC: 4 (Simulation time: 03 hr 21 min 20 sec)
*** Reached end of trace: (0, "traces/canneal_big0.champsimtrace")
*** Reached end of trace: (2, "traces/canneal_big2.champsimtrace")
*** Reached end of trace: (3, "traces/canneal_big3.champsimtrace")
*** Reached end of trace: (2, "traces/canneal_big2.champsimtrace")
*** Reached end of trace: (3, "traces/canneal_big3.champsimtrace")
Heartbeat CPU 2 instructions: 400000001 cycles: 100004204 heartbeat IPC: 4 cumulative IPC: 4 (Simulation time: 03 hr 26 min 23 sec)
Heartbeat CPU 3 instructions: 400000001 cycles: 100004251 heartbeat IPC: 4 cumulative IPC: 4 (Simulation time: 03 hr 26 min 23 sec)
*** Reached end of trace: (0, "traces/canneal_big0.champsimtrace")
Heartbeat CPU 0 instructions: 230000051 cycles: 100612959 heartbeat IPC: 2.154 cumulative IPC: 2.156 (Simulation time: 03 hr 27 min 32 sec)
*** Reached end of trace: (2, "traces/canneal_big2.champsimtrace")
*** Reached end of trace: (3, "traces/canneal_big3.champsimtrace")
*** Reached end of trace: (2, "traces/canneal_big2.champsimtrace")
*** Reached end of trace: (3, "traces/canneal_big3.champsimtrace")
Heartbeat CPU 2 instructions: 410000001 cycles: 102504204 heartbeat IPC: 4 cumulative IPC: 4 (Simulation time: 03 hr 31 min 02 sec)
Heartbeat CPU 3 instructions: 410000001 cycles: 102504251 heartbeat IPC: 4 cumulative IPC: 4 (Simulation time: 03 hr 31 min 02 sec)
*** Reached end of trace: (0, "traces/canneal_big0.champsimtrace")
*** Reached end of trace: (2, "traces/canneal_big2.champsimtrace")
*** Reached end of trace: (3, "traces/canneal_big3.champsimtrace")
*** Reached end of trace: (2, "traces/canneal_big2.champsimtrace")
*** Reached end of trace: (3, "traces/canneal_big3.champsimtrace")
Heartbeat CPU 2 instructions: 420000001 cycles: 105004204 heartbeat IPC: 4 cumulative IPC: 4 (Simulation time: 03 hr 35 min 35 sec)
Heartbeat CPU 3 instructions: 420000001 cycles: 105004251 heartbeat IPC: 4 cumulative IPC: 4 (Simulation time: 03 hr 35 min 35 sec)
*** Reached end of trace: (0, "traces/canneal_big0.champsimtrace")
Heartbeat CPU 0 instructions: 240000052 cycles: 105240878 heartbeat IPC: 2.161 cumulative IPC: 2.156 (Simulation time: 03 hr 36 min 02 sec)
*** Reached end of trace: (2, "traces/canneal_big2.champsimtrace")
*** Reached end of trace: (3, "traces/canneal_big3.champsimtrace")
*** Reached end of trace: (2, "traces/canneal_big2.champsimtrace")
*** Reached end of trace: (3, "traces/canneal_big3.champsimtrace")
Heartbeat CPU 2 instructions: 430000001 cycles: 107504204 heartbeat IPC: 4 cumulative IPC: 4 (Simulation time: 03 hr 40 min 03 sec)
Heartbeat CPU 3 instructions: 430000001 cycles: 107504251 heartbeat IPC: 4 cumulative IPC: 4 (Simulation time: 03 hr 40 min 03 sec)
*** Reached end of trace: (0, "traces/canneal_big0.champsimtrace")
*** Reached end of trace: (2, "traces/canneal_big2.champsimtrace")
*** Reached end of trace: (3, "traces/canneal_big3.champsimtrace")
*** Reached end of trace: (1, "traces/canneal_big1.champsimtrace")
Heartbeat CPU 1 instructions: 70000012 cycles: 108922869 heartbeat IPC: 0.2547 cumulative IPC: 0.2552 (Simulation time: 03 hr 42 min 41 sec)
*** Reached end of trace: (0, "traces/canneal_big0.champsimtrace")
Heartbeat CPU 0 instructions: 250000052 cycles: 109864462 heartbeat IPC: 2.163 cumulative IPC: 2.157 (Simulation time: 03 hr 44 min 23 sec)
*** Reached end of trace: (2, "traces/canneal_big2.champsimtrace")
*** Reached end of trace: (3, "traces/canneal_big3.champsimtrace")
Heartbeat CPU 2 instructions: 440000001 cycles: 110004204 heartbeat IPC: 4 cumulative IPC: 4 (Simulation time: 03 hr 44 min 39 sec)
Heartbeat CPU 3 instructions: 440000001 cycles: 110004251 heartbeat IPC: 4 cumulative IPC: 4 (Simulation time: 03 hr 44 min 39 sec)
*** Reached end of trace: (2, "traces/canneal_big2.champsimtrace")
*** Reached end of trace: (3, "traces/canneal_big3.champsimtrace")
*** Reached end of trace: (0, "traces/canneal_big0.champsimtrace")
*** Reached end of trace: (2, "traces/canneal_big2.champsimtrace")
*** Reached end of trace: (3, "traces/canneal_big3.champsimtrace")
Heartbeat CPU 2 instructions: 450000001 cycles: 112504204 heartbeat IPC: 4 cumulative IPC: 4 (Simulation time: 03 hr 49 min 11 sec)
Heartbeat CPU 3 instructions: 450000001 cycles: 112504251 heartbeat IPC: 4 cumulative IPC: 4 (Simulation time: 03 hr 49 min 11 sec)
*** Reached end of trace: (2, "traces/canneal_big2.champsimtrace")
*** Reached end of trace: (3, "traces/canneal_big3.champsimtrace")
*** Reached end of trace: (0, "traces/canneal_big0.champsimtrace")
Heartbeat CPU 0 instructions: 260000055 cycles: 114527198 heartbeat IPC: 2.145 cumulative IPC: 2.156 (Simulation time: 03 hr 52 min 57 sec)
*** Reached end of trace: (2, "traces/canneal_big2.champsimtrace")
*** Reached end of trace: (3, "traces/canneal_big3.champsimtrace")
Heartbeat CPU 2 instructions: 460000001 cycles: 115004204 heartbeat IPC: 4 cumulative IPC: 4 (Simulation time: 03 hr 53 min 54 sec)
Heartbeat CPU 3 instructions: 460000001 cycles: 115004251 heartbeat IPC: 4 cumulative IPC: 4 (Simulation time: 03 hr 53 min 54 sec)
*** Reached end of trace: (2, "traces/canneal_big2.champsimtrace")
*** Reached end of trace: (3, "traces/canneal_big3.champsimtrace")
*** Reached end of trace: (0, "traces/canneal_big0.champsimtrace")
*** Reached end of trace: (2, "traces/canneal_big2.champsimtrace")
*** Reached end of trace: (3, "traces/canneal_big3.champsimtrace")
Heartbeat CPU 2 instructions: 470000001 cycles: 117504204 heartbeat IPC: 4 cumulative IPC: 4 (Simulation time: 03 hr 58 min 39 sec)
Heartbeat CPU 3 instructions: 470000001 cycles: 117504251 heartbeat IPC: 4 cumulative IPC: 4 (Simulation time: 03 hr 58 min 39 sec)
*** Reached end of trace: (2, "traces/canneal_big2.champsimtrace")
*** Reached end of trace: (3, "traces/canneal_big3.champsimtrace")
*** Reached end of trace: (0, "traces/canneal_big0.champsimtrace")
Heartbeat CPU 0 instructions: 270000058 cycles: 119178509 heartbeat IPC: 2.15 cumulative IPC: 2.156 (Simulation time: 04 hr 01 min 51 sec)
*** Reached end of trace: (2, "traces/canneal_big2.champsimtrace")
*** Reached end of trace: (3, "traces/canneal_big3.champsimtrace")
Heartbeat CPU 2 instructions: 480000001 cycles: 120004204 heartbeat IPC: 4 cumulative IPC: 4 (Simulation time: 04 hr 03 min 23 sec)
Heartbeat CPU 3 instructions: 480000001 cycles: 120004251 heartbeat IPC: 4 cumulative IPC: 4 (Simulation time: 04 hr 03 min 23 sec)
*** Reached end of trace: (2, "traces/canneal_big2.champsimtrace")
*** Reached end of trace: (3, "traces/canneal_big3.champsimtrace")
*** Reached end of trace: (0, "traces/canneal_big0.champsimtrace")
*** Reached end of trace: (2, "traces/canneal_big2.champsimtrace")
*** Reached end of trace: (3, "traces/canneal_big3.champsimtrace")
Heartbeat CPU 2 instructions: 490000001 cycles: 122504204 heartbeat IPC: 4 cumulative IPC: 4 (Simulation time: 04 hr 07 min 57 sec)
Heartbeat CPU 3 instructions: 490000001 cycles: 122504251 heartbeat IPC: 4 cumulative IPC: 4 (Simulation time: 04 hr 07 min 57 sec)
*** Reached end of trace: (2, "traces/canneal_big2.champsimtrace")
*** Reached end of trace: (3, "traces/canneal_big3.champsimtrace")
*** Reached end of trace: (0, "traces/canneal_big0.champsimtrace")
Heartbeat CPU 0 instructions: 280000059 cycles: 123810249 heartbeat IPC: 2.159 cumulative IPC: 2.156 (Simulation time: 04 hr 10 min 22 sec)
*** Reached end of trace: (2, "traces/canneal_big2.champsimtrace")
*** Reached end of trace: (3, "traces/canneal_big3.champsimtrace")
Heartbeat CPU 2 instructions: 500000001 cycles: 125004204 heartbeat IPC: 4 cumulative IPC: 4 (Simulation time: 04 hr 12 min 38 sec)
Heartbeat CPU 3 instructions: 500000001 cycles: 125004251 heartbeat IPC: 4 cumulative IPC: 4 (Simulation time: 04 hr 12 min 38 sec)
*** Reached end of trace: (0, "traces/canneal_big0.champsimtrace")
*** Reached end of trace: (2, "traces/canneal_big2.champsimtrace")
*** Reached end of trace: (3, "traces/canneal_big3.champsimtrace")
*** Reached end of trace: (2, "traces/canneal_big2.champsimtrace")
*** Reached end of trace: (3, "traces/canneal_big3.champsimtrace")
Heartbeat CPU 2 instructions: 510000001 cycles: 127504204 heartbeat IPC: 4 cumulative IPC: 4 (Simulation time: 04 hr 17 min 25 sec)
Heartbeat CPU 3 instructions: 510000001 cycles: 127504251 heartbeat IPC: 4 cumulative IPC: 4 (Simulation time: 04 hr 17 min 25 sec)
*** Reached end of trace: (0, "traces/canneal_big0.champsimtrace")
Heartbeat CPU 0 instructions: 290000062 cycles: 128437765 heartbeat IPC: 2.161 cumulative IPC: 2.156 (Simulation time: 04 hr 19 min 12 sec)
*** Reached end of trace: (1, "traces/canneal_big1.champsimtrace")
*** Reached end of trace: (2, "traces/canneal_big2.champsimtrace")
*** Reached end of trace: (3, "traces/canneal_big3.champsimtrace")
*** Reached end of trace: (2, "traces/canneal_big2.champsimtrace")
*** Reached end of trace: (3, "traces/canneal_big3.champsimtrace")
Heartbeat CPU 2 instructions: 520000001 cycles: 130004204 heartbeat IPC: 4 cumulative IPC: 4 (Simulation time: 04 hr 22 min 13 sec)
Heartbeat CPU 3 instructions: 520000001 cycles: 130004251 heartbeat IPC: 4 cumulative IPC: 4 (Simulation time: 04 hr 22 min 13 sec)
*** Reached end of trace: (0, "traces/canneal_big0.champsimtrace")
*** Reached end of trace: (2, "traces/canneal_big2.champsimtrace")
*** Reached end of trace: (3, "traces/canneal_big3.champsimtrace")
*** Reached end of trace: (2, "traces/canneal_big2.champsimtrace")
*** Reached end of trace: (3, "traces/canneal_big3.champsimtrace")
Heartbeat CPU 2 instructions: 530000001 cycles: 132504204 heartbeat IPC: 4 cumulative IPC: 4 (Simulation time: 04 hr 27 min 02 sec)
Heartbeat CPU 3 instructions: 530000001 cycles: 132504251 heartbeat IPC: 4 cumulative IPC: 4 (Simulation time: 04 hr 27 min 02 sec)
*** Reached end of trace: (0, "traces/canneal_big0.champsimtrace")
Heartbeat CPU 0 instructions: 300000065 cycles: 133117723 heartbeat IPC: 2.137 cumulative IPC: 2.155 (Simulation time: 04 hr 28 min 12 sec)
*** Reached end of trace: (2, "traces/canneal_big2.champsimtrace")
*** Reached end of trace: (3, "traces/canneal_big3.champsimtrace")
*** Reached end of trace: (2, "traces/canneal_big2.champsimtrace")
*** Reached end of trace: (3, "traces/canneal_big3.champsimtrace")
Heartbeat CPU 2 instructions: 540000001 cycles: 135004204 heartbeat IPC: 4 cumulative IPC: 4 (Simulation time: 04 hr 31 min 44 sec)
Heartbeat CPU 3 instructions: 540000001 cycles: 135004251 heartbeat IPC: 4 cumulative IPC: 4 (Simulation time: 04 hr 31 min 44 sec)
*** Reached end of trace: (0, "traces/canneal_big0.champsimtrace")
*** Reached end of trace: (2, "traces/canneal_big2.champsimtrace")
*** Reached end of trace: (3, "traces/canneal_big3.champsimtrace")
*** Reached end of trace: (2, "traces/canneal_big2.champsimtrace")
*** Reached end of trace: (3, "traces/canneal_big3.champsimtrace")
Heartbeat CPU 2 instructions: 550000001 cycles: 137504204 heartbeat IPC: 4 cumulative IPC: 4 (Simulation time: 04 hr 36 min 33 sec)
Heartbeat CPU 3 instructions: 550000001 cycles: 137504251 heartbeat IPC: 4 cumulative IPC: 4 (Simulation time: 04 hr 36 min 33 sec)
*** Reached end of trace: (0, "traces/canneal_big0.champsimtrace")
Heartbeat CPU 0 instructions: 310000065 cycles: 137766147 heartbeat IPC: 2.151 cumulative IPC: 2.155 (Simulation time: 04 hr 37 min 04 sec)
*** Reached end of trace: (2, "traces/canneal_big2.champsimtrace")
*** Reached end of trace: (3, "traces/canneal_big3.champsimtrace")
*** Reached end of trace: (2, "traces/canneal_big2.champsimtrace")
*** Reached end of trace: (3, "traces/canneal_big3.champsimtrace")
Heartbeat CPU 2 instructions: 560000001 cycles: 140004204 heartbeat IPC: 4 cumulative IPC: 4 (Simulation time: 04 hr 41 min 25 sec)
Heartbeat CPU 3 instructions: 560000001 cycles: 140004251 heartbeat IPC: 4 cumulative IPC: 4 (Simulation time: 04 hr 41 min 25 sec)
*** Reached end of trace: (0, "traces/canneal_big0.champsimtrace")
*** Reached end of trace: (2, "traces/canneal_big2.champsimtrace")
*** Reached end of trace: (3, "traces/canneal_big3.champsimtrace")
*** Reached end of trace: (0, "traces/canneal_big0.champsimtrace")
Heartbeat CPU 0 instructions: 320000066 cycles: 142407627 heartbeat IPC: 2.154 cumulative IPC: 2.155 (Simulation time: 04 hr 46 min 04 sec)
*** Reached end of trace: (2, "traces/canneal_big2.champsimtrace")
*** Reached end of trace: (3, "traces/canneal_big3.champsimtrace")
Heartbeat CPU 2 instructions: 570000001 cycles: 142504204 heartbeat IPC: 4 cumulative IPC: 4 (Simulation time: 04 hr 46 min 15 sec)
Heartbeat CPU 3 instructions: 570000001 cycles: 142504251 heartbeat IPC: 4 cumulative IPC: 4 (Simulation time: 04 hr 46 min 15 sec)
*** Reached end of trace: (2, "traces/canneal_big2.champsimtrace")
*** Reached end of trace: (3, "traces/canneal_big3.champsimtrace")
*** Reached end of trace: (0, "traces/canneal_big0.champsimtrace")
*** Reached end of trace: (2, "traces/canneal_big2.champsimtrace")
*** Reached end of trace: (3, "traces/canneal_big3.champsimtrace")
Heartbeat CPU 2 instructions: 580000001 cycles: 145004204 heartbeat IPC: 4 cumulative IPC: 4 (Simulation time: 04 hr 51 min 07 sec)
Heartbeat CPU 3 instructions: 580000001 cycles: 145004251 heartbeat IPC: 4 cumulative IPC: 4 (Simulation time: 04 hr 51 min 07 sec)
*** Reached end of trace: (2, "traces/canneal_big2.champsimtrace")
*** Reached end of trace: (3, "traces/canneal_big3.champsimtrace")
*** Reached end of trace: (0, "traces/canneal_big0.champsimtrace")
Heartbeat CPU 0 instructions: 330000066 cycles: 147036118 heartbeat IPC: 2.161 cumulative IPC: 2.155 (Simulation time: 04 hr 55 min 05 sec)
*** Reached end of trace: (2, "traces/canneal_big2.champsimtrace")
*** Reached end of trace: (3, "traces/canneal_big3.champsimtrace")
Heartbeat CPU 2 instructions: 590000001 cycles: 147504204 heartbeat IPC: 4 cumulative IPC: 4 (Simulation time: 04 hr 56 min 03 sec)
Heartbeat CPU 3 instructions: 590000001 cycles: 147504251 heartbeat IPC: 4 cumulative IPC: 4 (Simulation time: 04 hr 56 min 03 sec)
*** Reached end of trace: (1, "traces/canneal_big1.champsimtrace")
Heartbeat CPU 1 instructions: 80000014 cycles: 148232302 heartbeat IPC: 0.2544 cumulative IPC: 0.2549 (Simulation time: 04 hr 57 min 30 sec)
*** Reached end of trace: (2, "traces/canneal_big2.champsimtrace")
*** Reached end of trace: (3, "traces/canneal_big3.champsimtrace")
*** Reached end of trace: (0, "traces/canneal_big0.champsimtrace")
*** Reached end of trace: (2, "traces/canneal_big2.champsimtrace")
*** Reached end of trace: (3, "traces/canneal_big3.champsimtrace")
Heartbeat CPU 2 instructions: 600000001 cycles: 150004204 heartbeat IPC: 4 cumulative IPC: 4 (Simulation time: 05 hr 01 min 07 sec)
Heartbeat CPU 3 instructions: 600000001 cycles: 150004251 heartbeat IPC: 4 cumulative IPC: 4 (Simulation time: 05 hr 01 min 07 sec)
*** Reached end of trace: (2, "traces/canneal_big2.champsimtrace")
*** Reached end of trace: (3, "traces/canneal_big3.champsimtrace")
*** Reached end of trace: (0, "traces/canneal_big0.champsimtrace")
Heartbeat CPU 0 instructions: 340000067 cycles: 151692788 heartbeat IPC: 2.147 cumulative IPC: 2.155 (Simulation time: 05 hr 04 min 32 sec)
*** Reached end of trace: (2, "traces/canneal_big2.champsimtrace")
*** Reached end of trace: (3, "traces/canneal_big3.champsimtrace")
Heartbeat CPU 2 instructions: 610000001 cycles: 152504204 heartbeat IPC: 4 cumulative IPC: 4 (Simulation time: 05 hr 06 min 10 sec)
Heartbeat CPU 3 instructions: 610000001 cycles: 152504251 heartbeat IPC: 4 cumulative IPC: 4 (Simulation time: 05 hr 06 min 10 sec)
*** Reached end of trace: (2, "traces/canneal_big2.champsimtrace")
*** Reached end of trace: (3, "traces/canneal_big3.champsimtrace")
*** Reached end of trace: (0, "traces/canneal_big0.champsimtrace")
*** Reached end of trace: (2, "traces/canneal_big2.champsimtrace")
*** Reached end of trace: (3, "traces/canneal_big3.champsimtrace")
Heartbeat CPU 2 instructions: 620000001 cycles: 155004204 heartbeat IPC: 4 cumulative IPC: 4 (Simulation time: 05 hr 11 min 12 sec)
Heartbeat CPU 3 instructions: 620000001 cycles: 155004251 heartbeat IPC: 4 cumulative IPC: 4 (Simulation time: 05 hr 11 min 12 sec)
*** Reached end of trace: (2, "traces/canneal_big2.champsimtrace")
*** Reached end of trace: (3, "traces/canneal_big3.champsimtrace")
*** Reached end of trace: (0, "traces/canneal_big0.champsimtrace")
Heartbeat CPU 0 instructions: 350000067 cycles: 156327914 heartbeat IPC: 2.157 cumulative IPC: 2.155 (Simulation time: 05 hr 13 min 53 sec)
*** Reached end of trace: (2, "traces/canneal_big2.champsimtrace")
*** Reached end of trace: (3, "traces/canneal_big3.champsimtrace")
Heartbeat CPU 2 instructions: 630000001 cycles: 157504204 heartbeat IPC: 4 cumulative IPC: 4 (Simulation time: 05 hr 16 min 02 sec)
Heartbeat CPU 3 instructions: 630000001 cycles: 157504251 heartbeat IPC: 4 cumulative IPC: 4 (Simulation time: 05 hr 16 min 02 sec)
*** Reached end of trace: (0, "traces/canneal_big0.champsimtrace")
*** Reached end of trace: (2, "traces/canneal_big2.champsimtrace")
*** Reached end of trace: (3, "traces/canneal_big3.champsimtrace")
*** Reached end of trace: (2, "traces/canneal_big2.champsimtrace")
*** Reached end of trace: (3, "traces/canneal_big3.champsimtrace")
Heartbeat CPU 2 instructions: 640000001 cycles: 160004204 heartbeat IPC: 4 cumulative IPC: 4 (Simulation time: 05 hr 20 min 29 sec)
Heartbeat CPU 3 instructions: 640000001 cycles: 160004251 heartbeat IPC: 4 cumulative IPC: 4 (Simulation time: 05 hr 20 min 29 sec)
*** Reached end of trace: (0, "traces/canneal_big0.champsimtrace")
Heartbeat CPU 0 instructions: 360000068 cycles: 160964036 heartbeat IPC: 2.157 cumulative IPC: 2.155 (Simulation time: 05 hr 22 min 13 sec)
*** Reached end of trace: (2, "traces/canneal_big2.champsimtrace")
*** Reached end of trace: (3, "traces/canneal_big3.champsimtrace")
*** Reached end of trace: (2, "traces/canneal_big2.champsimtrace")
*** Reached end of trace: (3, "traces/canneal_big3.champsimtrace")
Heartbeat CPU 2 instructions: 650000001 cycles: 162504204 heartbeat IPC: 4 cumulative IPC: 4 (Simulation time: 05 hr 24 min 58 sec)
Heartbeat CPU 3 instructions: 650000001 cycles: 162504251 heartbeat IPC: 4 cumulative IPC: 4 (Simulation time: 05 hr 24 min 58 sec)
*** Reached end of trace: (0, "traces/canneal_big0.champsimtrace")
*** Reached end of trace: (2, "traces/canneal_big2.champsimtrace")
*** Reached end of trace: (3, "traces/canneal_big3.champsimtrace")
*** Reached end of trace: (2, "traces/canneal_big2.champsimtrace")
*** Reached end of trace: (3, "traces/canneal_big3.champsimtrace")
Heartbeat CPU 2 instructions: 660000001 cycles: 165004204 heartbeat IPC: 4 cumulative IPC: 4 (Simulation time: 05 hr 29 min 24 sec)
Heartbeat CPU 3 instructions: 660000001 cycles: 165004251 heartbeat IPC: 4 cumulative IPC: 4 (Simulation time: 05 hr 29 min 24 sec)
*** Reached end of trace: (0, "traces/canneal_big0.champsimtrace")
Heartbeat CPU 0 instructions: 370000068 cycles: 165590428 heartbeat IPC: 2.162 cumulative IPC: 2.155 (Simulation time: 05 hr 30 min 26 sec)
*** Reached end of trace: (2, "traces/canneal_big2.champsimtrace")
*** Reached end of trace: (3, "traces/canneal_big3.champsimtrace")
*** Reached end of trace: (2, "traces/canneal_big2.champsimtrace")
*** Reached end of trace: (3, "traces/canneal_big3.champsimtrace")
Heartbeat CPU 2 instructions: 670000001 cycles: 167504204 heartbeat IPC: 4 cumulative IPC: 4 (Simulation time: 05 hr 33 min 52 sec)
Heartbeat CPU 3 instructions: 670000001 cycles: 167504251 heartbeat IPC: 4 cumulative IPC: 4 (Simulation time: 05 hr 33 min 52 sec)
*** Reached end of trace: (0, "traces/canneal_big0.champsimtrace")
*** Reached end of trace: (1, "traces/canneal_big1.champsimtrace")
*** Reached end of trace: (2, "traces/canneal_big2.champsimtrace")
*** Reached end of trace: (3, "traces/canneal_big3.champsimtrace")
*** Reached end of trace: (2, "traces/canneal_big2.champsimtrace")
*** Reached end of trace: (3, "traces/canneal_big3.champsimtrace")
Heartbeat CPU 2 instructions: 680000001 cycles: 170004204 heartbeat IPC: 4 cumulative IPC: 4 (Simulation time: 05 hr 38 min 45 sec)
Heartbeat CPU 3 instructions: 680000001 cycles: 170004251 heartbeat IPC: 4 cumulative IPC: 4 (Simulation time: 05 hr 38 min 45 sec)
*** Reached end of trace: (0, "traces/canneal_big0.champsimtrace")
Heartbeat CPU 0 instructions: 380000069 cycles: 170246510 heartbeat IPC: 2.148 cumulative IPC: 2.155 (Simulation time: 05 hr 39 min 15 sec)
*** Reached end of trace: (2, "traces/canneal_big2.champsimtrace")
*** Reached end of trace: (3, "traces/canneal_big3.champsimtrace")
*** Reached end of trace: (2, "traces/canneal_big2.champsimtrace")
*** Reached end of trace: (3, "traces/canneal_big3.champsimtrace")
Heartbeat CPU 2 instructions: 690000001 cycles: 172504204 heartbeat IPC: 4 cumulative IPC: 4 (Simulation time: 05 hr 43 min 43 sec)
Heartbeat CPU 3 instructions: 690000001 cycles: 172504251 heartbeat IPC: 4 cumulative IPC: 4 (Simulation time: 05 hr 43 min 43 sec)
*** Reached end of trace: (0, "traces/canneal_big0.champsimtrace")
*** Reached end of trace: (2, "traces/canneal_big2.champsimtrace")
*** Reached end of trace: (3, "traces/canneal_big3.champsimtrace")
*** Reached end of trace: (0, "traces/canneal_big0.champsimtrace")
Heartbeat CPU 0 instructions: 390000072 cycles: 174907941 heartbeat IPC: 2.145 cumulative IPC: 2.155 (Simulation time: 05 hr 48 min 24 sec)
*** Reached end of trace: (2, "traces/canneal_big2.champsimtrace")
*** Reached end of trace: (3, "traces/canneal_big3.champsimtrace")
Heartbeat CPU 2 instructions: 700000001 cycles: 175004204 heartbeat IPC: 4 cumulative IPC: 4 (Simulation time: 05 hr 48 min 36 sec)
Heartbeat CPU 3 instructions: 700000001 cycles: 175004251 heartbeat IPC: 4 cumulative IPC: 4 (Simulation time: 05 hr 48 min 36 sec)
*** Reached end of trace: (2, "traces/canneal_big2.champsimtrace")
*** Reached end of trace: (3, "traces/canneal_big3.champsimtrace")
*** Reached end of trace: (0, "traces/canneal_big0.champsimtrace")
*** Reached end of trace: (2, "traces/canneal_big2.champsimtrace")
*** Reached end of trace: (3, "traces/canneal_big3.champsimtrace")
Heartbeat CPU 2 instructions: 710000001 cycles: 177504204 heartbeat IPC: 4 cumulative IPC: 4 (Simulation time: 05 hr 53 min 15 sec)
Heartbeat CPU 3 instructions: 710000001 cycles: 177504251 heartbeat IPC: 4 cumulative IPC: 4 (Simulation time: 05 hr 53 min 15 sec)
*** Reached end of trace: (2, "traces/canneal_big2.champsimtrace")
*** Reached end of trace: (3, "traces/canneal_big3.champsimtrace")
*** Reached end of trace: (0, "traces/canneal_big0.champsimtrace")
Heartbeat CPU 0 instructions: 400000072 cycles: 179557437 heartbeat IPC: 2.151 cumulative IPC: 2.155 (Simulation time: 05 hr 56 min 56 sec)
*** Reached end of trace: (2, "traces/canneal_big2.champsimtrace")
*** Reached end of trace: (3, "traces/canneal_big3.champsimtrace")
Heartbeat CPU 2 instructions: 720000001 cycles: 180004204 heartbeat IPC: 4 cumulative IPC: 4 (Simulation time: 05 hr 57 min 46 sec)
Heartbeat CPU 3 instructions: 720000001 cycles: 180004251 heartbeat IPC: 4 cumulative IPC: 4 (Simulation time: 05 hr 57 min 46 sec)
*** Reached end of trace: (2, "traces/canneal_big2.champsimtrace")
*** Reached end of trace: (3, "traces/canneal_big3.champsimtrace")
*** Reached end of trace: (0, "traces/canneal_big0.champsimtrace")
*** Reached end of trace: (2, "traces/canneal_big2.champsimtrace")
*** Reached end of trace: (3, "traces/canneal_big3.champsimtrace")
Heartbeat CPU 2 instructions: 730000001 cycles: 182504204 heartbeat IPC: 4 cumulative IPC: 4 (Simulation time: 06 hr 02 min 26 sec)
Heartbeat CPU 3 instructions: 730000001 cycles: 182504251 heartbeat IPC: 4 cumulative IPC: 4 (Simulation time: 06 hr 02 min 26 sec)
*** Reached end of trace: (2, "traces/canneal_big2.champsimtrace")
*** Reached end of trace: (3, "traces/canneal_big3.champsimtrace")
*** Reached end of trace: (0, "traces/canneal_big0.champsimtrace")
Heartbeat CPU 0 instructions: 410000073 cycles: 184183104 heartbeat IPC: 2.162 cumulative IPC: 2.155 (Simulation time: 06 hr 05 min 31 sec)
*** Reached end of trace: (2, "traces/canneal_big2.champsimtrace")
*** Reached end of trace: (3, "traces/canneal_big3.champsimtrace")
Heartbeat CPU 2 instructions: 740000001 cycles: 185004204 heartbeat IPC: 4 cumulative IPC: 4 (Simulation time: 06 hr 07 min 03 sec)
Heartbeat CPU 3 instructions: 740000001 cycles: 185004251 heartbeat IPC: 4 cumulative IPC: 4 (Simulation time: 06 hr 07 min 03 sec)
*** Reached end of trace: (2, "traces/canneal_big2.champsimtrace")
*** Reached end of trace: (3, "traces/canneal_big3.champsimtrace")
*** Reached end of trace: (0, "traces/canneal_big0.champsimtrace")
*** Reached end of trace: (2, "traces/canneal_big2.champsimtrace")
*** Reached end of trace: (3, "traces/canneal_big3.champsimtrace")
Heartbeat CPU 2 instructions: 750000001 cycles: 187504204 heartbeat IPC: 4 cumulative IPC: 4 (Simulation time: 06 hr 11 min 45 sec)
Heartbeat CPU 3 instructions: 750000001 cycles: 187504251 heartbeat IPC: 4 cumulative IPC: 4 (Simulation time: 06 hr 11 min 45 sec)
*** Reached end of trace: (1, "traces/canneal_big1.champsimtrace")
Heartbeat CPU 1 instructions: 90000016 cycles: 187574916 heartbeat IPC: 0.2542 cumulative IPC: 0.2547 (Simulation time: 06 hr 11 min 52 sec)
*** Reached end of trace: (2, "traces/canneal_big2.champsimtrace")
*** Reached end of trace: (3, "traces/canneal_big3.champsimtrace")
*** Reached end of trace: (0, "traces/canneal_big0.champsimtrace")
Heartbeat CPU 0 instructions: 420000076 cycles: 188813673 heartbeat IPC: 2.16 cumulative IPC: 2.155 (Simulation time: 06 hr 14 min 14 sec)
*** Reached end of trace: (2, "traces/canneal_big2.champsimtrace")
*** Reached end of trace: (3, "traces/canneal_big3.champsimtrace")
Heartbeat CPU 2 instructions: 760000001 cycles: 190004204 heartbeat IPC: 4 cumulative IPC: 4 (Simulation time: 06 hr 16 min 28 sec)
Heartbeat CPU 3 instructions: 760000001 cycles: 190004251 heartbeat IPC: 4 cumulative IPC: 4 (Simulation time: 06 hr 16 min 28 sec)
*** Reached end of trace: (0, "traces/canneal_big0.champsimtrace")
*** Reached end of trace: (2, "traces/canneal_big2.champsimtrace")
*** Reached end of trace: (3, "traces/canneal_big3.champsimtrace")
*** Reached end of trace: (2, "traces/canneal_big2.champsimtrace")
*** Reached end of trace: (3, "traces/canneal_big3.champsimtrace")
Heartbeat CPU 2 instructions: 770000001 cycles: 192504204 heartbeat IPC: 4 cumulative IPC: 4 (Simulation time: 06 hr 21 min 13 sec)
Heartbeat CPU 3 instructions: 770000001 cycles: 192504251 heartbeat IPC: 4 cumulative IPC: 4 (Simulation time: 06 hr 21 min 13 sec)
*** Reached end of trace: (0, "traces/canneal_big0.champsimtrace")
Heartbeat CPU 0 instructions: 430000076 cycles: 193478984 heartbeat IPC: 2.143 cumulative IPC: 2.155 (Simulation time: 06 hr 23 min 02 sec)
*** Reached end of trace: (2, "traces/canneal_big2.champsimtrace")
*** Reached end of trace: (3, "traces/canneal_big3.champsimtrace")
*** Reached end of trace: (2, "traces/canneal_big2.champsimtrace")
*** Reached end of trace: (3, "traces/canneal_big3.champsimtrace")
Heartbeat CPU 2 instructions: 780000001 cycles: 195004204 heartbeat IPC: 4 cumulative IPC: 4 (Simulation time: 06 hr 25 min 53 sec)
Heartbeat CPU 3 instructions: 780000001 cycles: 195004251 heartbeat IPC: 4 cumulative IPC: 4 (Simulation time: 06 hr 25 min 53 sec)
*** Reached end of trace: (0, "traces/canneal_big0.champsimtrace")
*** Reached end of trace: (2, "traces/canneal_big2.champsimtrace")
*** Reached end of trace: (3, "traces/canneal_big3.champsimtrace")
*** Reached end of trace: (2, "traces/canneal_big2.champsimtrace")
*** Reached end of trace: (3, "traces/canneal_big3.champsimtrace")
Heartbeat CPU 2 instructions: 790000001 cycles: 197504204 heartbeat IPC: 4 cumulative IPC: 4 (Simulation time: 06 hr 30 min 34 sec)
Heartbeat CPU 3 instructions: 790000001 cycles: 197504251 heartbeat IPC: 4 cumulative IPC: 4 (Simulation time: 06 hr 30 min 34 sec)
*** Reached end of trace: (0, "traces/canneal_big0.champsimtrace")
Heartbeat CPU 0 instructions: 440000079 cycles: 198118555 heartbeat IPC: 2.155 cumulative IPC: 2.155 (Simulation time: 06 hr 31 min 42 sec)
*** Reached end of trace: (2, "traces/canneal_big2.champsimtrace")
*** Reached end of trace: (3, "traces/canneal_big3.champsimtrace")
*** Reached end of trace: (2, "traces/canneal_big2.champsimtrace")
*** Reached end of trace: (3, "traces/canneal_big3.champsimtrace")
Heartbeat CPU 2 instructions: 800000001 cycles: 200004204 heartbeat IPC: 4 cumulative IPC: 4 (Simulation time: 06 hr 35 min 18 sec)
Heartbeat CPU 3 instructions: 800000001 cycles: 200004251 heartbeat IPC: 4 cumulative IPC: 4 (Simulation time: 06 hr 35 min 18 sec)
*** Reached end of trace: (0, "traces/canneal_big0.champsimtrace")
*** Reached end of trace: (2, "traces/canneal_big2.champsimtrace")
*** Reached end of trace: (3, "traces/canneal_big3.champsimtrace")
*** Reached end of trace: (2, "traces/canneal_big2.champsimtrace")
*** Reached end of trace: (3, "traces/canneal_big3.champsimtrace")
Heartbeat CPU 2 instructions: 810000001 cycles: 202504204 heartbeat IPC: 4 cumulative IPC: 4 (Simulation time: 06 hr 40 min 05 sec)
Heartbeat CPU 3 instructions: 810000001 cycles: 202504251 heartbeat IPC: 4 cumulative IPC: 4 (Simulation time: 06 hr 40 min 05 sec)
*** Reached end of trace: (0, "traces/canneal_big0.champsimtrace")
Heartbeat CPU 0 instructions: 450000080 cycles: 202743990 heartbeat IPC: 2.162 cumulative IPC: 2.155 (Simulation time: 06 hr 40 min 32 sec)
*** Reached end of trace: (2, "traces/canneal_big2.champsimtrace")
*** Reached end of trace: (3, "traces/canneal_big3.champsimtrace")
*** Reached end of trace: (2, "traces/canneal_big2.champsimtrace")
*** Reached end of trace: (3, "traces/canneal_big3.champsimtrace")
Heartbeat CPU 2 instructions: 820000001 cycles: 205004204 heartbeat IPC: 4 cumulative IPC: 4 (Simulation time: 06 hr 44 min 47 sec)
Heartbeat CPU 3 instructions: 820000001 cycles: 205004251 heartbeat IPC: 4 cumulative IPC: 4 (Simulation time: 06 hr 44 min 47 sec)
*** Reached end of trace: (0, "traces/canneal_big0.champsimtrace")
*** Reached end of trace: (2, "traces/canneal_big2.champsimtrace")
*** Reached end of trace: (3, "traces/canneal_big3.champsimtrace")
*** Reached end of trace: (1, "traces/canneal_big1.champsimtrace")
*** Reached end of trace: (0, "traces/canneal_big0.champsimtrace")
Heartbeat CPU 0 instructions: 460000080 cycles: 207363231 heartbeat IPC: 2.165 cumulative IPC: 2.155 (Simulation time: 06 hr 49 min 16 sec)
*** Reached end of trace: (2, "traces/canneal_big2.champsimtrace")
*** Reached end of trace: (3, "traces/canneal_big3.champsimtrace")
Heartbeat CPU 2 instructions: 830000001 cycles: 207504204 heartbeat IPC: 4 cumulative IPC: 4 (Simulation time: 06 hr 49 min 33 sec)
Heartbeat CPU 3 instructions: 830000001 cycles: 207504251 heartbeat IPC: 4 cumulative IPC: 4 (Simulation time: 06 hr 49 min 33 sec)
*** Reached end of trace: (2, "traces/canneal_big2.champsimtrace")
*** Reached end of trace: (3, "traces/canneal_big3.champsimtrace")
*** Reached end of trace: (0, "traces/canneal_big0.champsimtrace")
*** Reached end of trace: (2, "traces/canneal_big2.champsimtrace")
*** Reached end of trace: (3, "traces/canneal_big3.champsimtrace")
Heartbeat CPU 2 instructions: 840000001 cycles: 210004204 heartbeat IPC: 4 cumulative IPC: 4 (Simulation time: 06 hr 53 min 30 sec)
Heartbeat CPU 3 instructions: 840000001 cycles: 210004251 heartbeat IPC: 4 cumulative IPC: 4 (Simulation time: 06 hr 53 min 30 sec)
*** Reached end of trace: (2, "traces/canneal_big2.champsimtrace")
*** Reached end of trace: (3, "traces/canneal_big3.champsimtrace")
*** Reached end of trace: (0, "traces/canneal_big0.champsimtrace")
Heartbeat CPU 0 instructions: 470000081 cycles: 212036256 heartbeat IPC: 2.14 cumulative IPC: 2.155 (Simulation time: 06 hr 57 min 14 sec)
*** Reached end of trace: (2, "traces/canneal_big2.champsimtrace")
*** Reached end of trace: (3, "traces/canneal_big3.champsimtrace")
Heartbeat CPU 2 instructions: 850000001 cycles: 212504204 heartbeat IPC: 4 cumulative IPC: 4 (Simulation time: 06 hr 58 min 06 sec)
Heartbeat CPU 3 instructions: 850000001 cycles: 212504251 heartbeat IPC: 4 cumulative IPC: 4 (Simulation time: 06 hr 58 min 06 sec)
*** Reached end of trace: (2, "traces/canneal_big2.champsimtrace")
*** Reached end of trace: (3, "traces/canneal_big3.champsimtrace")
*** Reached end of trace: (0, "traces/canneal_big0.champsimtrace")
*** Reached end of trace: (2, "traces/canneal_big2.champsimtrace")
*** Reached end of trace: (3, "traces/canneal_big3.champsimtrace")
Heartbeat CPU 2 instructions: 860000001 cycles: 215004204 heartbeat IPC: 4 cumulative IPC: 4 (Simulation time: 07 hr 02 min 42 sec)
Heartbeat CPU 3 instructions: 860000001 cycles: 215004251 heartbeat IPC: 4 cumulative IPC: 4 (Simulation time: 07 hr 02 min 42 sec)
*** Reached end of trace: (2, "traces/canneal_big2.champsimtrace")
*** Reached end of trace: (3, "traces/canneal_big3.champsimtrace")
*** Reached end of trace: (0, "traces/canneal_big0.champsimtrace")
Heartbeat CPU 0 instructions: 480000081 cycles: 216671352 heartbeat IPC: 2.157 cumulative IPC: 2.155 (Simulation time: 07 hr 05 min 40 sec)
*** Reached end of trace: (2, "traces/canneal_big2.champsimtrace")
*** Reached end of trace: (3, "traces/canneal_big3.champsimtrace")
Heartbeat CPU 2 instructions: 870000001 cycles: 217504204 heartbeat IPC: 4 cumulative IPC: 4 (Simulation time: 07 hr 07 min 10 sec)
Heartbeat CPU 3 instructions: 870000001 cycles: 217504251 heartbeat IPC: 4 cumulative IPC: 4 (Simulation time: 07 hr 07 min 10 sec)
*** Reached end of trace: (2, "traces/canneal_big2.champsimtrace")
*** Reached end of trace: (3, "traces/canneal_big3.champsimtrace")
*** Reached end of trace: (0, "traces/canneal_big0.champsimtrace")
*** Reached end of trace: (2, "traces/canneal_big2.champsimtrace")
*** Reached end of trace: (3, "traces/canneal_big3.champsimtrace")
Heartbeat CPU 2 instructions: 880000001 cycles: 220004204 heartbeat IPC: 4 cumulative IPC: 4 (Simulation time: 07 hr 11 min 43 sec)
Heartbeat CPU 3 instructions: 880000001 cycles: 220004251 heartbeat IPC: 4 cumulative IPC: 4 (Simulation time: 07 hr 11 min 43 sec)
*** Reached end of trace: (2, "traces/canneal_big2.champsimtrace")
*** Reached end of trace: (3, "traces/canneal_big3.champsimtrace")
*** Reached end of trace: (0, "traces/canneal_big0.champsimtrace")
Heartbeat CPU 0 instructions: 490000082 cycles: 221301292 heartbeat IPC: 2.16 cumulative IPC: 2.155 (Simulation time: 07 hr 14 min 16 sec)
*** Reached end of trace: (2, "traces/canneal_big2.champsimtrace")
*** Reached end of trace: (3, "traces/canneal_big3.champsimtrace")
Heartbeat CPU 2 instructions: 890000001 cycles: 222504204 heartbeat IPC: 4 cumulative IPC: 4 (Simulation time: 07 hr 16 min 38 sec)
Heartbeat CPU 3 instructions: 890000001 cycles: 222504251 heartbeat IPC: 4 cumulative IPC: 4 (Simulation time: 07 hr 16 min 38 sec)
*** Reached end of trace: (0, "traces/canneal_big0.champsimtrace")
*** Reached end of trace: (2, "traces/canneal_big2.champsimtrace")
*** Reached end of trace: (3, "traces/canneal_big3.champsimtrace")
*** Reached end of trace: (2, "traces/canneal_big2.champsimtrace")
*** Reached end of trace: (3, "traces/canneal_big3.champsimtrace")
Heartbeat CPU 2 instructions: 900000001 cycles: 225004204 heartbeat IPC: 4 cumulative IPC: 4 (Simulation time: 07 hr 21 min 27 sec)
Heartbeat CPU 3 instructions: 900000001 cycles: 225004251 heartbeat IPC: 4 cumulative IPC: 4 (Simulation time: 07 hr 21 min 27 sec)
*** Reached end of trace: (0, "traces/canneal_big0.champsimtrace")
Heartbeat CPU 0 instructions: 500000085 cycles: 225918688 heartbeat IPC: 2.166 cumulative IPC: 2.155 (Simulation time: 07 hr 23 min 16 sec)
*** Reached end of trace: (2, "traces/canneal_big2.champsimtrace")
*** Reached end of trace: (3, "traces/canneal_big3.champsimtrace")
*** Reached end of trace: (1, "traces/canneal_big1.champsimtrace")
Heartbeat CPU 1 instructions: 100000018 cycles: 226870142 heartbeat IPC: 0.2545 cumulative IPC: 0.2547 (Simulation time: 07 hr 25 min 11 sec)
*** Reached end of trace: (2, "traces/canneal_big2.champsimtrace")
*** Reached end of trace: (3, "traces/canneal_big3.champsimtrace")
Heartbeat CPU 2 instructions: 910000001 cycles: 227504204 heartbeat IPC: 4 cumulative IPC: 4 (Simulation time: 07 hr 26 min 30 sec)
Heartbeat CPU 3 instructions: 910000001 cycles: 227504251 heartbeat IPC: 4 cumulative IPC: 4 (Simulation time: 07 hr 26 min 30 sec)
*** Reached end of trace: (0, "traces/canneal_big0.champsimtrace")
*** Reached end of trace: (2, "traces/canneal_big2.champsimtrace")
*** Reached end of trace: (3, "traces/canneal_big3.champsimtrace")
*** Reached end of trace: (2, "traces/canneal_big2.champsimtrace")
*** Reached end of trace: (3, "traces/canneal_big3.champsimtrace")
Heartbeat CPU 2 instructions: 920000001 cycles: 230004204 heartbeat IPC: 4 cumulative IPC: 4 (Simulation time: 07 hr 31 min 35 sec)
Heartbeat CPU 3 instructions: 920000001 cycles: 230004251 heartbeat IPC: 4 cumulative IPC: 4 (Simulation time: 07 hr 31 min 35 sec)
*** Reached end of trace: (0, "traces/canneal_big0.champsimtrace")
Heartbeat CPU 0 instructions: 510000088 cycles: 230587526 heartbeat IPC: 2.142 cumulative IPC: 2.155 (Simulation time: 07 hr 32 min 43 sec)
*** Reached end of trace: (2, "traces/canneal_big2.champsimtrace")
*** Reached end of trace: (3, "traces/canneal_big3.champsimtrace")
*** Reached end of trace: (2, "traces/canneal_big2.champsimtrace")
*** Reached end of trace: (3, "traces/canneal_big3.champsimtrace")
Heartbeat CPU 2 instructions: 930000001 cycles: 232504204 heartbeat IPC: 4 cumulative IPC: 4 (Simulation time: 07 hr 36 min 32 sec)
Heartbeat CPU 3 instructions: 930000001 cycles: 232504251 heartbeat IPC: 4 cumulative IPC: 4 (Simulation time: 07 hr 36 min 32 sec)
*** Reached end of trace: (0, "traces/canneal_big0.champsimtrace")
*** Reached end of trace: (2, "traces/canneal_big2.champsimtrace")
*** Reached end of trace: (3, "traces/canneal_big3.champsimtrace")
*** Reached end of trace: (2, "traces/canneal_big2.champsimtrace")
*** Reached end of trace: (3, "traces/canneal_big3.champsimtrace")
Heartbeat CPU 2 instructions: 940000001 cycles: 235004204 heartbeat IPC: 4 cumulative IPC: 4 (Simulation time: 07 hr 41 min 31 sec)
Heartbeat CPU 3 instructions: 940000001 cycles: 235004251 heartbeat IPC: 4 cumulative IPC: 4 (Simulation time: 07 hr 41 min 31 sec)
*** Reached end of trace: (0, "traces/canneal_big0.champsimtrace")
Heartbeat CPU 0 instructions: 520000091 cycles: 235229945 heartbeat IPC: 2.154 cumulative IPC: 2.155 (Simulation time: 07 hr 41 min 57 sec)
*** Reached end of trace: (2, "traces/canneal_big2.champsimtrace")
*** Reached end of trace: (3, "traces/canneal_big3.champsimtrace")
*** Reached end of trace: (2, "traces/canneal_big2.champsimtrace")
*** Reached end of trace: (3, "traces/canneal_big3.champsimtrace")
Heartbeat CPU 2 instructions: 950000001 cycles: 237504204 heartbeat IPC: 4 cumulative IPC: 4 (Simulation time: 07 hr 46 min 04 sec)
Heartbeat CPU 3 instructions: 950000001 cycles: 237504251 heartbeat IPC: 4 cumulative IPC: 4 (Simulation time: 07 hr 46 min 04 sec)
*** Reached end of trace: (0, "traces/canneal_big0.champsimtrace")
*** Reached end of trace: (2, "traces/canneal_big2.champsimtrace")
*** Reached end of trace: (3, "traces/canneal_big3.champsimtrace")
*** Reached end of trace: (0, "traces/canneal_big0.champsimtrace")
Heartbeat CPU 0 instructions: 530000091 cycles: 239864264 heartbeat IPC: 2.158 cumulative IPC: 2.155 (Simulation time: 07 hr 50 min 31 sec)
*** Reached end of trace: (2, "traces/canneal_big2.champsimtrace")
*** Reached end of trace: (3, "traces/canneal_big3.champsimtrace")
Heartbeat CPU 2 instructions: 960000001 cycles: 240004204 heartbeat IPC: 4 cumulative IPC: 4 (Simulation time: 07 hr 50 min 47 sec)
Heartbeat CPU 3 instructions: 960000001 cycles: 240004251 heartbeat IPC: 4 cumulative IPC: 4 (Simulation time: 07 hr 50 min 47 sec)
*** Reached end of trace: (2, "traces/canneal_big2.champsimtrace")
*** Reached end of trace: (3, "traces/canneal_big3.champsimtrace")
*** Reached end of trace: (0, "traces/canneal_big0.champsimtrace")
*** Reached end of trace: (2, "traces/canneal_big2.champsimtrace")
*** Reached end of trace: (3, "traces/canneal_big3.champsimtrace")
Heartbeat CPU 2 instructions: 970000001 cycles: 242504204 heartbeat IPC: 4 cumulative IPC: 4 (Simulation time: 07 hr 55 min 32 sec)
Heartbeat CPU 3 instructions: 970000001 cycles: 242504251 heartbeat IPC: 4 cumulative IPC: 4 (Simulation time: 07 hr 55 min 32 sec)
*** Reached end of trace: (2, "traces/canneal_big2.champsimtrace")
*** Reached end of trace: (3, "traces/canneal_big3.champsimtrace")
*** Reached end of trace: (0, "traces/canneal_big0.champsimtrace")
Heartbeat CPU 0 instructions: 540000095 cycles: 244488886 heartbeat IPC: 2.162 cumulative IPC: 2.155 (Simulation time: 07 hr 59 min 16 sec)
*** Reached end of trace: (2, "traces/canneal_big2.champsimtrace")
*** Reached end of trace: (3, "traces/canneal_big3.champsimtrace")
Heartbeat CPU 2 instructions: 980000001 cycles: 245004204 heartbeat IPC: 4 cumulative IPC: 4 (Simulation time: 08 hr 00 min 17 sec)
Heartbeat CPU 3 instructions: 980000001 cycles: 245004251 heartbeat IPC: 4 cumulative IPC: 4 (Simulation time: 08 hr 00 min 17 sec)
*** Reached end of trace: (2, "traces/canneal_big2.champsimtrace")
*** Reached end of trace: (3, "traces/canneal_big3.champsimtrace")
*** Reached end of trace: (1, "traces/canneal_big1.champsimtrace")
*** Reached end of trace: (0, "traces/canneal_big0.champsimtrace")
*** Reached end of trace: (2, "traces/canneal_big2.champsimtrace")
*** Reached end of trace: (3, "traces/canneal_big3.champsimtrace")
Heartbeat CPU 2 instructions: 990000001 cycles: 247504204 heartbeat IPC: 4 cumulative IPC: 4 (Simulation time: 08 hr 05 min 07 sec)
Heartbeat CPU 3 instructions: 990000001 cycles: 247504251 heartbeat IPC: 4 cumulative IPC: 4 (Simulation time: 08 hr 05 min 07 sec)
*** Reached end of trace: (2, "traces/canneal_big2.champsimtrace")
*** Reached end of trace: (3, "traces/canneal_big3.champsimtrace")
*** Reached end of trace: (0, "traces/canneal_big0.champsimtrace")
Heartbeat CPU 0 instructions: 550000095 cycles: 249141463 heartbeat IPC: 2.149 cumulative IPC: 2.155 (Simulation time: 08 hr 08 min 12 sec)
*** Reached end of trace: (2, "traces/canneal_big2.champsimtrace")
*** Reached end of trace: (3, "traces/canneal_big3.champsimtrace")
Heartbeat CPU 2 instructions: 1000000001 cycles: 250004204 heartbeat IPC: 4 cumulative IPC: 4 (Simulation time: 08 hr 09 min 51 sec)
Heartbeat CPU 3 instructions: 1000000001 cycles: 250004251 heartbeat IPC: 4 cumulative IPC: 4 (Simulation time: 08 hr 09 min 51 sec)
*** Reached end of trace: (2, "traces/canneal_big2.champsimtrace")
*** Reached end of trace: (3, "traces/canneal_big3.champsimtrace")
*** Reached end of trace: (0, "traces/canneal_big0.champsimtrace")
*** Reached end of trace: (2, "traces/canneal_big2.champsimtrace")
*** Reached end of trace: (3, "traces/canneal_big3.champsimtrace")
Heartbeat CPU 2 instructions: 1010000001 cycles: 252504204 heartbeat IPC: 4 cumulative IPC: 4 (Simulation time: 08 hr 14 min 36 sec)
Heartbeat CPU 3 instructions: 1010000001 cycles: 252504251 heartbeat IPC: 4 cumulative IPC: 4 (Simulation time: 08 hr 14 min 36 sec)
*** Reached end of trace: (2, "traces/canneal_big2.champsimtrace")
*** Reached end of trace: (3, "traces/canneal_big3.champsimtrace")
*** Reached end of trace: (0, "traces/canneal_big0.champsimtrace")
Heartbeat CPU 0 instructions: 560000098 cycles: 253795420 heartbeat IPC: 2.149 cumulative IPC: 2.155 (Simulation time: 08 hr 17 min 00 sec)
*** Reached end of trace: (2, "traces/canneal_big2.champsimtrace")
*** Reached end of trace: (3, "traces/canneal_big3.champsimtrace")
Heartbeat CPU 2 instructions: 1020000001 cycles: 255004204 heartbeat IPC: 4 cumulative IPC: 4 (Simulation time: 08 hr 19 min 18 sec)
Heartbeat CPU 3 instructions: 1020000001 cycles: 255004251 heartbeat IPC: 4 cumulative IPC: 4 (Simulation time: 08 hr 19 min 18 sec)
*** Reached end of trace: (0, "traces/canneal_big0.champsimtrace")
*** Reached end of trace: (2, "traces/canneal_big2.champsimtrace")
*** Reached end of trace: (3, "traces/canneal_big3.champsimtrace")
*** Reached end of trace: (2, "traces/canneal_big2.champsimtrace")
*** Reached end of trace: (3, "traces/canneal_big3.champsimtrace")
Heartbeat CPU 2 instructions: 1030000001 cycles: 257504204 heartbeat IPC: 4 cumulative IPC: 4 (Simulation time: 08 hr 24 min 02 sec)
Heartbeat CPU 3 instructions: 1030000001 cycles: 257504251 heartbeat IPC: 4 cumulative IPC: 4 (Simulation time: 08 hr 24 min 02 sec)
*** Reached end of trace: (0, "traces/canneal_big0.champsimtrace")
Heartbeat CPU 0 instructions: 570000101 cycles: 258429864 heartbeat IPC: 2.158 cumulative IPC: 2.155 (Simulation time: 08 hr 25 min 47 sec)
*** Reached end of trace: (2, "traces/canneal_big2.champsimtrace")
*** Reached end of trace: (3, "traces/canneal_big3.champsimtrace")
*** Reached end of trace: (2, "traces/canneal_big2.champsimtrace")
*** Reached end of trace: (3, "traces/canneal_big3.champsimtrace")
Heartbeat CPU 2 instructions: 1040000001 cycles: 260004204 heartbeat IPC: 4 cumulative IPC: 4 (Simulation time: 08 hr 28 min 47 sec)
Heartbeat CPU 3 instructions: 1040000001 cycles: 260004251 heartbeat IPC: 4 cumulative IPC: 4 (Simulation time: 08 hr 28 min 47 sec)
*** Reached end of trace: (0, "traces/canneal_big0.champsimtrace")
*** Reached end of trace: (2, "traces/canneal_big2.champsimtrace")
*** Reached end of trace: (3, "traces/canneal_big3.champsimtrace")
*** Reached end of trace: (2, "traces/canneal_big2.champsimtrace")
*** Reached end of trace: (3, "traces/canneal_big3.champsimtrace")
Heartbeat CPU 2 instructions: 1050000001 cycles: 262504204 heartbeat IPC: 4 cumulative IPC: 4 (Simulation time: 08 hr 33 min 39 sec)
Heartbeat CPU 3 instructions: 1050000001 cycles: 262504251 heartbeat IPC: 4 cumulative IPC: 4 (Simulation time: 08 hr 33 min 39 sec)
*** Reached end of trace: (0, "traces/canneal_big0.champsimtrace")
Heartbeat CPU 0 instructions: 580000102 cycles: 263045182 heartbeat IPC: 2.167 cumulative IPC: 2.155 (Simulation time: 08 hr 34 min 40 sec)
*** Reached end of trace: (2, "traces/canneal_big2.champsimtrace")
*** Reached end of trace: (3, "traces/canneal_big3.champsimtrace")
*** Reached end of trace: (2, "traces/canneal_big2.champsimtrace")
*** Reached end of trace: (3, "traces/canneal_big3.champsimtrace")
Heartbeat CPU 2 instructions: 1060000001 cycles: 265004204 heartbeat IPC: 4 cumulative IPC: 4 (Simulation time: 08 hr 38 min 26 sec)
Heartbeat CPU 3 instructions: 1060000001 cycles: 265004251 heartbeat IPC: 4 cumulative IPC: 4 (Simulation time: 08 hr 38 min 26 sec)
*** Reached end of trace: (0, "traces/canneal_big0.champsimtrace")
*** Reached end of trace: (1, "traces/canneal_big1.champsimtrace")
Heartbeat CPU 1 instructions: 110000020 cycles: 266145573 heartbeat IPC: 0.2546 cumulative IPC: 0.2547 (Simulation time: 08 hr 40 min 40 sec)
*** Reached end of trace: (2, "traces/canneal_big2.champsimtrace")
*** Reached end of trace: (3, "traces/canneal_big3.champsimtrace")
*** Reached end of trace: (2, "traces/canneal_big2.champsimtrace")
*** Reached end of trace: (3, "traces/canneal_big3.champsimtrace")
Heartbeat CPU 2 instructions: 1070000001 cycles: 267504204 heartbeat IPC: 4 cumulative IPC: 4 (Simulation time: 08 hr 43 min 19 sec)
Heartbeat CPU 3 instructions: 1070000001 cycles: 267504251 heartbeat IPC: 4 cumulative IPC: 4 (Simulation time: 08 hr 43 min 19 sec)
*** Reached end of trace: (0, "traces/canneal_big0.champsimtrace")
Heartbeat CPU 0 instructions: 590000102 cycles: 267686132 heartbeat IPC: 2.155 cumulative IPC: 2.155 (Simulation time: 08 hr 43 min 40 sec)
*** Reached end of trace: (2, "traces/canneal_big2.champsimtrace")
*** Reached end of trace: (3, "traces/canneal_big3.champsimtrace")
*** Reached end of trace: (2, "traces/canneal_big2.champsimtrace")
*** Reached end of trace: (3, "traces/canneal_big3.champsimtrace")
Heartbeat CPU 2 instructions: 1080000001 cycles: 270004204 heartbeat IPC: 4 cumulative IPC: 4 (Simulation time: 08 hr 48 min 11 sec)
Heartbeat CPU 3 instructions: 1080000001 cycles: 270004251 heartbeat IPC: 4 cumulative IPC: 4 (Simulation time: 08 hr 48 min 11 sec)
*** Reached end of trace: (0, "traces/canneal_big0.champsimtrace")
*** Reached end of trace: (2, "traces/canneal_big2.champsimtrace")
*** Reached end of trace: (3, "traces/canneal_big3.champsimtrace")
*** Reached end of trace: (0, "traces/canneal_big0.champsimtrace")
Heartbeat CPU 0 instructions: 600000103 cycles: 272345600 heartbeat IPC: 2.146 cumulative IPC: 2.155 (Simulation time: 08 hr 52 min 48 sec)
*** Reached end of trace: (2, "traces/canneal_big2.champsimtrace")
*** Reached end of trace: (3, "traces/canneal_big3.champsimtrace")
Heartbeat CPU 2 instructions: 1090000001 cycles: 272504204 heartbeat IPC: 4 cumulative IPC: 4 (Simulation time: 08 hr 53 min 07 sec)
Heartbeat CPU 3 instructions: 1090000001 cycles: 272504251 heartbeat IPC: 4 cumulative IPC: 4 (Simulation time: 08 hr 53 min 07 sec)
*** Reached end of trace: (2, "traces/canneal_big2.champsimtrace")
*** Reached end of trace: (3, "traces/canneal_big3.champsimtrace")
*** Reached end of trace: (0, "traces/canneal_big0.champsimtrace")
*** Reached end of trace: (2, "traces/canneal_big2.champsimtrace")
*** Reached end of trace: (3, "traces/canneal_big3.champsimtrace")
Heartbeat CPU 2 instructions: 1100000001 cycles: 275004204 heartbeat IPC: 4 cumulative IPC: 4 (Simulation time: 08 hr 58 min 07 sec)
Heartbeat CPU 3 instructions: 1100000001 cycles: 275004251 heartbeat IPC: 4 cumulative IPC: 4 (Simulation time: 08 hr 58 min 07 sec)
*** Reached end of trace: (2, "traces/canneal_big2.champsimtrace")
*** Reached end of trace: (3, "traces/canneal_big3.champsimtrace")
*** Reached end of trace: (0, "traces/canneal_big0.champsimtrace")
Heartbeat CPU 0 instructions: 610000103 cycles: 276984081 heartbeat IPC: 2.156 cumulative IPC: 2.155 (Simulation time: 09 hr 02 min 02 sec)
*** Reached end of trace: (2, "traces/canneal_big2.champsimtrace")
*** Reached end of trace: (3, "traces/canneal_big3.champsimtrace")
Heartbeat CPU 2 instructions: 1110000001 cycles: 277504204 heartbeat IPC: 4 cumulative IPC: 4 (Simulation time: 09 hr 03 min 06 sec)
Heartbeat CPU 3 instructions: 1110000001 cycles: 277504251 heartbeat IPC: 4 cumulative IPC: 4 (Simulation time: 09 hr 03 min 06 sec)
*** Reached end of trace: (2, "traces/canneal_big2.champsimtrace")
*** Reached end of trace: (3, "traces/canneal_big3.champsimtrace")
*** Reached end of trace: (0, "traces/canneal_big0.champsimtrace")
*** Reached end of trace: (2, "traces/canneal_big2.champsimtrace")
*** Reached end of trace: (3, "traces/canneal_big3.champsimtrace")
Heartbeat CPU 2 instructions: 1120000001 cycles: 280004204 heartbeat IPC: 4 cumulative IPC: 4 (Simulation time: 09 hr 07 min 58 sec)
Heartbeat CPU 3 instructions: 1120000001 cycles: 280004251 heartbeat IPC: 4 cumulative IPC: 4 (Simulation time: 09 hr 07 min 58 sec)
*** Reached end of trace: (2, "traces/canneal_big2.champsimtrace")
*** Reached end of trace: (3, "traces/canneal_big3.champsimtrace")
*** Reached end of trace: (0, "traces/canneal_big0.champsimtrace")
Heartbeat CPU 0 instructions: 620000106 cycles: 281608079 heartbeat IPC: 2.163 cumulative IPC: 2.155 (Simulation time: 09 hr 11 min 00 sec)
*** Reached end of trace: (2, "traces/canneal_big2.champsimtrace")
*** Reached end of trace: (3, "traces/canneal_big3.champsimtrace")
Heartbeat CPU 2 instructions: 1130000001 cycles: 282504204 heartbeat IPC: 4 cumulative IPC: 4 (Simulation time: 09 hr 12 min 43 sec)
Heartbeat CPU 3 instructions: 1130000001 cycles: 282504251 heartbeat IPC: 4 cumulative IPC: 4 (Simulation time: 09 hr 12 min 43 sec)
*** Reached end of trace: (2, "traces/canneal_big2.champsimtrace")
*** Reached end of trace: (3, "traces/canneal_big3.champsimtrace")
*** Reached end of trace: (0, "traces/canneal_big0.champsimtrace")
*** Reached end of trace: (2, "traces/canneal_big2.champsimtrace")
*** Reached end of trace: (3, "traces/canneal_big3.champsimtrace")
Heartbeat CPU 2 instructions: 1140000001 cycles: 285004204 heartbeat IPC: 4 cumulative IPC: 4 (Simulation time: 09 hr 17 min 35 sec)
Heartbeat CPU 3 instructions: 1140000001 cycles: 285004251 heartbeat IPC: 4 cumulative IPC: 4 (Simulation time: 09 hr 17 min 35 sec)
*** Reached end of trace: (1, "traces/canneal_big1.champsimtrace")
*** Reached end of trace: (0, "traces/canneal_big0.champsimtrace")
Heartbeat CPU 0 instructions: 630000108 cycles: 286228170 heartbeat IPC: 2.164 cumulative IPC: 2.155 (Simulation time: 09 hr 20 min 09 sec)
*** Reached end of trace: (2, "traces/canneal_big2.champsimtrace")
*** Reached end of trace: (3, "traces/canneal_big3.champsimtrace")
*** Reached end of trace: (2, "traces/canneal_big2.champsimtrace")
*** Reached end of trace: (3, "traces/canneal_big3.champsimtrace")
Heartbeat CPU 2 instructions: 1150000001 cycles: 287504204 heartbeat IPC: 4 cumulative IPC: 4 (Simulation time: 09 hr 22 min 41 sec)
Heartbeat CPU 3 instructions: 1150000001 cycles: 287504251 heartbeat IPC: 4 cumulative IPC: 4 (Simulation time: 09 hr 22 min 41 sec)
*** Reached end of trace: (0, "traces/canneal_big0.champsimtrace")
*** Reached end of trace: (2, "traces/canneal_big2.champsimtrace")
*** Reached end of trace: (3, "traces/canneal_big3.champsimtrace")
*** Reached end of trace: (2, "traces/canneal_big2.champsimtrace")
*** Reached end of trace: (3, "traces/canneal_big3.champsimtrace")
Heartbeat CPU 2 instructions: 1160000001 cycles: 290004204 heartbeat IPC: 4 cumulative IPC: 4 (Simulation time: 09 hr 27 min 45 sec)
Heartbeat CPU 3 instructions: 1160000001 cycles: 290004251 heartbeat IPC: 4 cumulative IPC: 4 (Simulation time: 09 hr 27 min 45 sec)
*** Reached end of trace: (0, "traces/canneal_big0.champsimtrace")
Heartbeat CPU 0 instructions: 640000109 cycles: 290894782 heartbeat IPC: 2.143 cumulative IPC: 2.155 (Simulation time: 09 hr 29 min 27 sec)
*** Reached end of trace: (2, "traces/canneal_big2.champsimtrace")
*** Reached end of trace: (3, "traces/canneal_big3.champsimtrace")
*** Reached end of trace: (2, "traces/canneal_big2.champsimtrace")
*** Reached end of trace: (3, "traces/canneal_big3.champsimtrace")
Heartbeat CPU 2 instructions: 1170000001 cycles: 292504204 heartbeat IPC: 4 cumulative IPC: 4 (Simulation time: 09 hr 32 min 30 sec)
Heartbeat CPU 3 instructions: 1170000001 cycles: 292504251 heartbeat IPC: 4 cumulative IPC: 4 (Simulation time: 09 hr 32 min 30 sec)
*** Reached end of trace: (0, "traces/canneal_big0.champsimtrace")
*** Reached end of trace: (2, "traces/canneal_big2.champsimtrace")
*** Reached end of trace: (3, "traces/canneal_big3.champsimtrace")
*** Reached end of trace: (2, "traces/canneal_big2.champsimtrace")
*** Reached end of trace: (3, "traces/canneal_big3.champsimtrace")
Heartbeat CPU 2 instructions: 1180000001 cycles: 295004204 heartbeat IPC: 4 cumulative IPC: 4 (Simulation time: 09 hr 37 min 19 sec)
Heartbeat CPU 3 instructions: 1180000001 cycles: 295004251 heartbeat IPC: 4 cumulative IPC: 4 (Simulation time: 09 hr 37 min 19 sec)
*** Reached end of trace: (0, "traces/canneal_big0.champsimtrace")
Heartbeat CPU 0 instructions: 650000110 cycles: 295535871 heartbeat IPC: 2.155 cumulative IPC: 2.155 (Simulation time: 09 hr 38 min 20 sec)
*** Reached end of trace: (2, "traces/canneal_big2.champsimtrace")
*** Reached end of trace: (3, "traces/canneal_big3.champsimtrace")
*** Reached end of trace: (2, "traces/canneal_big2.champsimtrace")
*** Reached end of trace: (3, "traces/canneal_big3.champsimtrace")
Heartbeat CPU 2 instructions: 1190000001 cycles: 297504204 heartbeat IPC: 4 cumulative IPC: 4 (Simulation time: 09 hr 42 min 08 sec)
Heartbeat CPU 3 instructions: 1190000001 cycles: 297504251 heartbeat IPC: 4 cumulative IPC: 4 (Simulation time: 09 hr 42 min 08 sec)
*** Reached end of trace: (0, "traces/canneal_big0.champsimtrace")
*** Reached end of trace: (2, "traces/canneal_big2.champsimtrace")
*** Reached end of trace: (3, "traces/canneal_big3.champsimtrace")
*** Reached end of trace: (2, "traces/canneal_big2.champsimtrace")
*** Reached end of trace: (3, "traces/canneal_big3.champsimtrace")
Heartbeat CPU 2 instructions: 1200000001 cycles: 300004204 heartbeat IPC: 4 cumulative IPC: 4 (Simulation time: 09 hr 47 min 01 sec)
Heartbeat CPU 3 instructions: 1200000001 cycles: 300004251 heartbeat IPC: 4 cumulative IPC: 4 (Simulation time: 09 hr 47 min 01 sec)
*** Reached end of trace: (0, "traces/canneal_big0.champsimtrace")
Heartbeat CPU 0 instructions: 660000113 cycles: 300167082 heartbeat IPC: 2.159 cumulative IPC: 2.155 (Simulation time: 09 hr 47 min 20 sec)
*** Reached end of trace: (2, "traces/canneal_big2.champsimtrace")
*** Reached end of trace: (3, "traces/canneal_big3.champsimtrace")
*** Reached end of trace: (0, "traces/canneal_big0.champsimtrace")
*** Reached end of trace: (2, "traces/canneal_big2.champsimtrace")
*** Reached end of trace: (3, "traces/canneal_big3.champsimtrace")
Heartbeat CPU 2 instructions: 1210000001 cycles: 302504204 heartbeat IPC: 4 cumulative IPC: 4 (Simulation time: 09 hr 51 min 52 sec)
Heartbeat CPU 3 instructions: 1210000001 cycles: 302504251 heartbeat IPC: 4 cumulative IPC: 4 (Simulation time: 09 hr 51 min 52 sec)
*** Reached end of trace: (2, "traces/canneal_big2.champsimtrace")
*** Reached end of trace: (3, "traces/canneal_big3.champsimtrace")
*** Reached end of trace: (0, "traces/canneal_big0.champsimtrace")
Heartbeat CPU 0 instructions: 670000116 cycles: 304794263 heartbeat IPC: 2.161 cumulative IPC: 2.155 (Simulation time: 09 hr 56 min 16 sec)
*** Reached end of trace: (2, "traces/canneal_big2.champsimtrace")
*** Reached end of trace: (3, "traces/canneal_big3.champsimtrace")
Heartbeat CPU 2 instructions: 1220000001 cycles: 305004204 heartbeat IPC: 4 cumulative IPC: 4 (Simulation time: 09 hr 56 min 41 sec)
Heartbeat CPU 3 instructions: 1220000001 cycles: 305004251 heartbeat IPC: 4 cumulative IPC: 4 (Simulation time: 09 hr 56 min 41 sec)
*** Reached end of trace: (1, "traces/canneal_big1.champsimtrace")
Heartbeat CPU 1 instructions: 120000022 cycles: 305522254 heartbeat IPC: 0.254 cumulative IPC: 0.2546 (Simulation time: 09 hr 57 min 42 sec)
*** Reached end of trace: (2, "traces/canneal_big2.champsimtrace")
*** Reached end of trace: (3, "traces/canneal_big3.champsimtrace")
*** Reached end of trace: (0, "traces/canneal_big0.champsimtrace")
*** Reached end of trace: (2, "traces/canneal_big2.champsimtrace")
*** Reached end of trace: (3, "traces/canneal_big3.champsimtrace")
Heartbeat CPU 2 instructions: 1230000001 cycles: 307504204 heartbeat IPC: 4 cumulative IPC: 4 (Simulation time: 10 hr 01 min 38 sec)
Heartbeat CPU 3 instructions: 1230000001 cycles: 307504251 heartbeat IPC: 4 cumulative IPC: 4 (Simulation time: 10 hr 01 min 38 sec)
*** Reached end of trace: (2, "traces/canneal_big2.champsimtrace")
*** Reached end of trace: (3, "traces/canneal_big3.champsimtrace")
*** Reached end of trace: (0, "traces/canneal_big0.champsimtrace")
Heartbeat CPU 0 instructions: 680000118 cycles: 309457289 heartbeat IPC: 2.145 cumulative IPC: 2.155 (Simulation time: 10 hr 05 min 35 sec)
*** Reached end of trace: (2, "traces/canneal_big2.champsimtrace")
*** Reached end of trace: (3, "traces/canneal_big3.champsimtrace")
Heartbeat CPU 2 instructions: 1240000001 cycles: 310004204 heartbeat IPC: 4 cumulative IPC: 4 (Simulation time: 10 hr 06 min 46 sec)
Heartbeat CPU 3 instructions: 1240000001 cycles: 310004251 heartbeat IPC: 4 cumulative IPC: 4 (Simulation time: 10 hr 06 min 46 sec)
*** Reached end of trace: (2, "traces/canneal_big2.champsimtrace")
*** Reached end of trace: (3, "traces/canneal_big3.champsimtrace")
*** Reached end of trace: (0, "traces/canneal_big0.champsimtrace")
*** Reached end of trace: (2, "traces/canneal_big2.champsimtrace")
*** Reached end of trace: (3, "traces/canneal_big3.champsimtrace")
Heartbeat CPU 2 instructions: 1250000001 cycles: 312504204 heartbeat IPC: 4 cumulative IPC: 4 (Simulation time: 10 hr 11 min 58 sec)
Heartbeat CPU 3 instructions: 1250000001 cycles: 312504251 heartbeat IPC: 4 cumulative IPC: 4 (Simulation time: 10 hr 11 min 58 sec)
*** Reached end of trace: (2, "traces/canneal_big2.champsimtrace")
*** Reached end of trace: (3, "traces/canneal_big3.champsimtrace")
*** Reached end of trace: (0, "traces/canneal_big0.champsimtrace")
Heartbeat CPU 0 instructions: 690000122 cycles: 314096410 heartbeat IPC: 2.156 cumulative IPC: 2.155 (Simulation time: 10 hr 15 min 16 sec)
*** Reached end of trace: (2, "traces/canneal_big2.champsimtrace")
*** Reached end of trace: (3, "traces/canneal_big3.champsimtrace")
Heartbeat CPU 2 instructions: 1260000001 cycles: 315004204 heartbeat IPC: 4 cumulative IPC: 4 (Simulation time: 10 hr 17 min 06 sec)
Heartbeat CPU 3 instructions: 1260000001 cycles: 315004251 heartbeat IPC: 4 cumulative IPC: 4 (Simulation time: 10 hr 17 min 06 sec)
*** Reached end of trace: (2, "traces/canneal_big2.champsimtrace")
*** Reached end of trace: (3, "traces/canneal_big3.champsimtrace")
*** Reached end of trace: (0, "traces/canneal_big0.champsimtrace")
*** Reached end of trace: (2, "traces/canneal_big2.champsimtrace")
*** Reached end of trace: (3, "traces/canneal_big3.champsimtrace")
Heartbeat CPU 2 instructions: 1270000001 cycles: 317504204 heartbeat IPC: 4 cumulative IPC: 4 (Simulation time: 10 hr 21 min 55 sec)
Heartbeat CPU 3 instructions: 1270000001 cycles: 317504251 heartbeat IPC: 4 cumulative IPC: 4 (Simulation time: 10 hr 21 min 55 sec)
*** Reached end of trace: (0, "traces/canneal_big0.champsimtrace")
Heartbeat CPU 0 instructions: 700000126 cycles: 318732915 heartbeat IPC: 2.157 cumulative IPC: 2.155 (Simulation time: 10 hr 24 min 17 sec)
*** Reached end of trace: (2, "traces/canneal_big2.champsimtrace")
*** Reached end of trace: (3, "traces/canneal_big3.champsimtrace")
*** Reached end of trace: (2, "traces/canneal_big2.champsimtrace")
*** Reached end of trace: (3, "traces/canneal_big3.champsimtrace")
Heartbeat CPU 2 instructions: 1280000001 cycles: 320004204 heartbeat IPC: 4 cumulative IPC: 4 (Simulation time: 10 hr 26 min 42 sec)
Heartbeat CPU 3 instructions: 1280000001 cycles: 320004251 heartbeat IPC: 4 cumulative IPC: 4 (Simulation time: 10 hr 26 min 42 sec)
*** Reached end of trace: (0, "traces/canneal_big0.champsimtrace")
*** Reached end of trace: (2, "traces/canneal_big2.champsimtrace")
*** Reached end of trace: (3, "traces/canneal_big3.champsimtrace")
*** Reached end of trace: (2, "traces/canneal_big2.champsimtrace")
*** Reached end of trace: (3, "traces/canneal_big3.champsimtrace")
Heartbeat CPU 2 instructions: 1290000001 cycles: 322504204 heartbeat IPC: 4 cumulative IPC: 4 (Simulation time: 10 hr 31 min 28 sec)
Heartbeat CPU 3 instructions: 1290000001 cycles: 322504251 heartbeat IPC: 4 cumulative IPC: 4 (Simulation time: 10 hr 31 min 28 sec)
*** Reached end of trace: (0, "traces/canneal_big0.champsimtrace")
Heartbeat CPU 0 instructions: 710000129 cycles: 323356385 heartbeat IPC: 2.163 cumulative IPC: 2.155 (Simulation time: 10 hr 33 min 04 sec)
*** Reached end of trace: (2, "traces/canneal_big2.champsimtrace")
*** Reached end of trace: (3, "traces/canneal_big3.champsimtrace")
*** Reached end of trace: (2, "traces/canneal_big2.champsimtrace")
*** Reached end of trace: (3, "traces/canneal_big3.champsimtrace")
Heartbeat CPU 2 instructions: 1300000001 cycles: 325004204 heartbeat IPC: 4 cumulative IPC: 4 (Simulation time: 10 hr 36 min 07 sec)
Heartbeat CPU 3 instructions: 1300000001 cycles: 325004251 heartbeat IPC: 4 cumulative IPC: 4 (Simulation time: 10 hr 36 min 07 sec)
*** Reached end of trace: (1, "traces/canneal_big1.champsimtrace")
*** Reached end of trace: (0, "traces/canneal_big0.champsimtrace")
*** Reached end of trace: (2, "traces/canneal_big2.champsimtrace")
*** Reached end of trace: (3, "traces/canneal_big3.champsimtrace")
*** Reached end of trace: (2, "traces/canneal_big2.champsimtrace")
*** Reached end of trace: (3, "traces/canneal_big3.champsimtrace")
Heartbeat CPU 2 instructions: 1310000001 cycles: 327504204 heartbeat IPC: 4 cumulative IPC: 4 (Simulation time: 10 hr 40 min 45 sec)
Heartbeat CPU 3 instructions: 1310000001 cycles: 327504251 heartbeat IPC: 4 cumulative IPC: 4 (Simulation time: 10 hr 40 min 45 sec)
*** Reached end of trace: (0, "traces/canneal_big0.champsimtrace")
Heartbeat CPU 0 instructions: 720000131 cycles: 328009096 heartbeat IPC: 2.149 cumulative IPC: 2.155 (Simulation time: 10 hr 41 min 40 sec)
*** Reached end of trace: (2, "traces/canneal_big2.champsimtrace")
*** Reached end of trace: (3, "traces/canneal_big3.champsimtrace")
*** Reached end of trace: (2, "traces/canneal_big2.champsimtrace")
*** Reached end of trace: (3, "traces/canneal_big3.champsimtrace")
Heartbeat CPU 2 instructions: 1320000001 cycles: 330004204 heartbeat IPC: 4 cumulative IPC: 4 (Simulation time: 10 hr 45 min 23 sec)
Heartbeat CPU 3 instructions: 1320000001 cycles: 330004251 heartbeat IPC: 4 cumulative IPC: 4 (Simulation time: 10 hr 45 min 23 sec)
*** Reached end of trace: (0, "traces/canneal_big0.champsimtrace")
*** Reached end of trace: (2, "traces/canneal_big2.champsimtrace")
*** Reached end of trace: (3, "traces/canneal_big3.champsimtrace")
*** Reached end of trace: (2, "traces/canneal_big2.champsimtrace")
*** Reached end of trace: (3, "traces/canneal_big3.champsimtrace")
Heartbeat CPU 2 instructions: 1330000001 cycles: 332504204 heartbeat IPC: 4 cumulative IPC: 4 (Simulation time: 10 hr 49 min 48 sec)
Heartbeat CPU 3 instructions: 1330000001 cycles: 332504251 heartbeat IPC: 4 cumulative IPC: 4 (Simulation time: 10 hr 49 min 48 sec)
*** Reached end of trace: (0, "traces/canneal_big0.champsimtrace")
Heartbeat CPU 0 instructions: 730000135 cycles: 332658365 heartbeat IPC: 2.151 cumulative IPC: 2.155 (Simulation time: 10 hr 50 min 06 sec)
*** Reached end of trace: (2, "traces/canneal_big2.champsimtrace")
*** Reached end of trace: (3, "traces/canneal_big3.champsimtrace")
*** Reached end of trace: (0, "traces/canneal_big0.champsimtrace")
*** Reached end of trace: (2, "traces/canneal_big2.champsimtrace")
*** Reached end of trace: (3, "traces/canneal_big3.champsimtrace")
Heartbeat CPU 2 instructions: 1340000001 cycles: 335004204 heartbeat IPC: 4 cumulative IPC: 4 (Simulation time: 10 hr 54 min 41 sec)
Heartbeat CPU 3 instructions: 1340000001 cycles: 335004251 heartbeat IPC: 4 cumulative IPC: 4 (Simulation time: 10 hr 54 min 41 sec)
*** Reached end of trace: (2, "traces/canneal_big2.champsimtrace")
*** Reached end of trace: (3, "traces/canneal_big3.champsimtrace")
*** Reached end of trace: (0, "traces/canneal_big0.champsimtrace")
Heartbeat CPU 0 instructions: 740000138 cycles: 337294680 heartbeat IPC: 2.157 cumulative IPC: 2.155 (Simulation time: 10 hr 58 min 59 sec)
*** Reached end of trace: (2, "traces/canneal_big2.champsimtrace")
*** Reached end of trace: (3, "traces/canneal_big3.champsimtrace")
Heartbeat CPU 2 instructions: 1350000001 cycles: 337504204 heartbeat IPC: 4 cumulative IPC: 4 (Simulation time: 10 hr 59 min 21 sec)
Heartbeat CPU 3 instructions: 1350000001 cycles: 337504251 heartbeat IPC: 4 cumulative IPC: 4 (Simulation time: 10 hr 59 min 21 sec)
*** Reached end of trace: (2, "traces/canneal_big2.champsimtrace")
*** Reached end of trace: (3, "traces/canneal_big3.champsimtrace")
*** Reached end of trace: (0, "traces/canneal_big0.champsimtrace")
*** Reached end of trace: (2, "traces/canneal_big2.champsimtrace")
*** Reached end of trace: (3, "traces/canneal_big3.champsimtrace")
Heartbeat CPU 2 instructions: 1360000001 cycles: 340004204 heartbeat IPC: 4 cumulative IPC: 4 (Simulation time: 11 hr 03 min 55 sec)
Heartbeat CPU 3 instructions: 1360000001 cycles: 340004251 heartbeat IPC: 4 cumulative IPC: 4 (Simulation time: 11 hr 03 min 55 sec)
*** Reached end of trace: (2, "traces/canneal_big2.champsimtrace")
*** Reached end of trace: (3, "traces/canneal_big3.champsimtrace")
*** Reached end of trace: (0, "traces/canneal_big0.champsimtrace")
Heartbeat CPU 0 instructions: 750000139 cycles: 341906161 heartbeat IPC: 2.169 cumulative IPC: 2.155 (Simulation time: 11 hr 07 min 25 sec)
*** Reached end of trace: (2, "traces/canneal_big2.champsimtrace")
*** Reached end of trace: (3, "traces/canneal_big3.champsimtrace")
Heartbeat CPU 2 instructions: 1370000001 cycles: 342504204 heartbeat IPC: 4 cumulative I