[VMEM] WARNING: physical memory size is smaller than virtual memory size.

*** ChampSim Multicore Out-of-Order Simulator ***
Warmup Instructions: 200000000
Simulation Instructions: 50000000
Number of CPUs: 4
Page size: 4096

Off-chip DRAM Size: 16 GiB Channels: 1 Width: 64-bit Data Rate: 3205 MT/s
*** Reached end of trace: (2, "traces/canneal_big2.champsimtrace")
*** Reached end of trace: (3, "traces/canneal_big3.champsimtrace")
*** Reached end of trace: (0, "traces/canneal_big0.champsimtrace")
*** Reached end of trace: (2, "traces/canneal_big2.champsimtrace")
*** Reached end of trace: (3, "traces/canneal_big3.champsimtrace")
Heartbeat CPU 2 instructions: 10000001 cycles: 2504204 heartbeat IPC: 3.993 cumulative IPC: 3.993 (Simulation time: 00 hr 03 min 11 sec)
Heartbeat CPU 3 instructions: 10000001 cycles: 2504251 heartbeat IPC: 3.993 cumulative IPC: 3.993 (Simulation time: 00 hr 03 min 11 sec)
*** Reached end of trace: (2, "traces/canneal_big2.champsimtrace")
*** Reached end of trace: (3, "traces/canneal_big3.champsimtrace")
*** Reached end of trace: (0, "traces/canneal_big0.champsimtrace")
Heartbeat CPU 0 instructions: 10000003 cycles: 4034607 heartbeat IPC: 2.479 cumulative IPC: 2.479 (Simulation time: 00 hr 05 min 16 sec)
*** Reached end of trace: (1, "traces/canneal_big1.champsimtrace")
*** Reached end of trace: (2, "traces/canneal_big2.champsimtrace")
*** Reached end of trace: (3, "traces/canneal_big3.champsimtrace")
Heartbeat CPU 2 instructions: 20000001 cycles: 5004204 heartbeat IPC: 4 cumulative IPC: 3.997 (Simulation time: 00 hr 06 min 46 sec)
Heartbeat CPU 3 instructions: 20000001 cycles: 5004251 heartbeat IPC: 4 cumulative IPC: 3.997 (Simulation time: 00 hr 06 min 46 sec)
*** Reached end of trace: (0, "traces/canneal_big0.champsimtrace")
*** Reached end of trace: (2, "traces/canneal_big2.champsimtrace")
*** Reached end of trace: (3, "traces/canneal_big3.champsimtrace")
*** Reached end of trace: (2, "traces/canneal_big2.champsimtrace")
*** Reached end of trace: (3, "traces/canneal_big3.champsimtrace")
Heartbeat CPU 2 instructions: 30000001 cycles: 7504204 heartbeat IPC: 4 cumulative IPC: 3.998 (Simulation time: 00 hr 11 min 05 sec)
Heartbeat CPU 3 instructions: 30000001 cycles: 7504251 heartbeat IPC: 4 cumulative IPC: 3.998 (Simulation time: 00 hr 11 min 05 sec)
*** Reached end of trace: (1, "traces/canneal_big1.champsimtrace")
Heartbeat CPU 1 instructions: 10000002 cycles: 7813908 heartbeat IPC: 1.28 cumulative IPC: 1.28 (Simulation time: 00 hr 11 min 33 sec)
*** Reached end of trace: (0, "traces/canneal_big0.champsimtrace")
Heartbeat CPU 0 instructions: 20000006 cycles: 7879488 heartbeat IPC: 2.601 cumulative IPC: 2.538 (Simulation time: 00 hr 11 min 38 sec)
*** Reached end of trace: (2, "traces/canneal_big2.champsimtrace")
*** Reached end of trace: (3, "traces/canneal_big3.champsimtrace")
*** Reached end of trace: (0, "traces/canneal_big0.champsimtrace")
*** Reached end of trace: (2, "traces/canneal_big2.champsimtrace")
*** Reached end of trace: (3, "traces/canneal_big3.champsimtrace")
Heartbeat CPU 2 instructions: 40000001 cycles: 10004204 heartbeat IPC: 4 cumulative IPC: 3.998 (Simulation time: 00 hr 15 min 03 sec)
Heartbeat CPU 3 instructions: 40000001 cycles: 10004251 heartbeat IPC: 4 cumulative IPC: 3.998 (Simulation time: 00 hr 15 min 03 sec)
*** Reached end of trace: (1, "traces/canneal_big1.champsimtrace")
*** Reached end of trace: (2, "traces/canneal_big2.champsimtrace")
*** Reached end of trace: (3, "traces/canneal_big3.champsimtrace")
*** Reached end of trace: (0, "traces/canneal_big0.champsimtrace")
Heartbeat CPU 0 instructions: 30000009 cycles: 11724609 heartbeat IPC: 2.601 cumulative IPC: 2.559 (Simulation time: 00 hr 17 min 47 sec)
*** Reached end of trace: (2, "traces/canneal_big2.champsimtrace")
*** Reached end of trace: (3, "traces/canneal_big3.champsimtrace")
Heartbeat CPU 2 instructions: 50000001 cycles: 12504204 heartbeat IPC: 4 cumulative IPC: 3.999 (Simulation time: 00 hr 19 min 10 sec)
Heartbeat CPU 3 instructions: 50000001 cycles: 12504251 heartbeat IPC: 4 cumulative IPC: 3.999 (Simulation time: 00 hr 19 min 10 sec)
*** Reached end of trace: (1, "traces/canneal_big1.champsimtrace")
Heartbeat CPU 1 instructions: 20000004 cycles: 13493238 heartbeat IPC: 1.761 cumulative IPC: 1.482 (Simulation time: 00 hr 20 min 43 sec)
*** Reached end of trace: (0, "traces/canneal_big0.champsimtrace")
*** Reached end of trace: (2, "traces/canneal_big2.champsimtrace")
*** Reached end of trace: (3, "traces/canneal_big3.champsimtrace")
*** Reached end of trace: (2, "traces/canneal_big2.champsimtrace")
*** Reached end of trace: (3, "traces/canneal_big3.champsimtrace")
Heartbeat CPU 2 instructions: 60000001 cycles: 15004204 heartbeat IPC: 4 cumulative IPC: 3.999 (Simulation time: 00 hr 23 min 08 sec)
Heartbeat CPU 3 instructions: 60000001 cycles: 15004251 heartbeat IPC: 4 cumulative IPC: 3.999 (Simulation time: 00 hr 23 min 08 sec)
*** Reached end of trace: (0, "traces/canneal_big0.champsimtrace")
Heartbeat CPU 0 instructions: 40000012 cycles: 15569670 heartbeat IPC: 2.601 cumulative IPC: 2.569 (Simulation time: 00 hr 24 min 05 sec)
*** Reached end of trace: (2, "traces/canneal_big2.champsimtrace")
*** Reached end of trace: (3, "traces/canneal_big3.champsimtrace")
*** Reached end of trace: (1, "traces/canneal_big1.champsimtrace")
*** Reached end of trace: (0, "traces/canneal_big0.champsimtrace")
*** Reached end of trace: (2, "traces/canneal_big2.champsimtrace")
*** Reached end of trace: (3, "traces/canneal_big3.champsimtrace")
Heartbeat CPU 2 instructions: 70000001 cycles: 17504204 heartbeat IPC: 4 cumulative IPC: 3.999 (Simulation time: 00 hr 27 min 32 sec)
Heartbeat CPU 3 instructions: 70000001 cycles: 17504251 heartbeat IPC: 4 cumulative IPC: 3.999 (Simulation time: 00 hr 27 min 32 sec)
*** Reached end of trace: (2, "traces/canneal_big2.champsimtrace")
*** Reached end of trace: (3, "traces/canneal_big3.champsimtrace")
*** Reached end of trace: (1, "traces/canneal_big1.champsimtrace")
Heartbeat CPU 1 instructions: 30000004 cycles: 19172574 heartbeat IPC: 1.761 cumulative IPC: 1.565 (Simulation time: 00 hr 30 min 27 sec)
*** Reached end of trace: (0, "traces/canneal_big0.champsimtrace")
Heartbeat CPU 0 instructions: 50000015 cycles: 19414761 heartbeat IPC: 2.601 cumulative IPC: 2.575 (Simulation time: 00 hr 30 min 51 sec)
*** Reached end of trace: (2, "traces/canneal_big2.champsimtrace")
*** Reached end of trace: (3, "traces/canneal_big3.champsimtrace")
Heartbeat CPU 2 instructions: 80000001 cycles: 20004204 heartbeat IPC: 4 cumulative IPC: 3.999 (Simulation time: 00 hr 31 min 53 sec)
Heartbeat CPU 3 instructions: 80000001 cycles: 20004251 heartbeat IPC: 4 cumulative IPC: 3.999 (Simulation time: 00 hr 31 min 53 sec)
*** Reached end of trace: (2, "traces/canneal_big2.champsimtrace")
*** Reached end of trace: (3, "traces/canneal_big3.champsimtrace")
*** Reached end of trace: (0, "traces/canneal_big0.champsimtrace")
*** Reached end of trace: (1, "traces/canneal_big1.champsimtrace")
*** Reached end of trace: (2, "traces/canneal_big2.champsimtrace")
*** Reached end of trace: (3, "traces/canneal_big3.champsimtrace")
Heartbeat CPU 2 instructions: 90000001 cycles: 22504204 heartbeat IPC: 4 cumulative IPC: 3.999 (Simulation time: 00 hr 36 min 13 sec)
Heartbeat CPU 3 instructions: 90000001 cycles: 22504251 heartbeat IPC: 4 cumulative IPC: 3.999 (Simulation time: 00 hr 36 min 13 sec)
*** Reached end of trace: (0, "traces/canneal_big0.champsimtrace")
Heartbeat CPU 0 instructions: 60000018 cycles: 23259887 heartbeat IPC: 2.601 cumulative IPC: 2.58 (Simulation time: 00 hr 37 min 24 sec)
*** Reached end of trace: (2, "traces/canneal_big2.champsimtrace")
*** Reached end of trace: (3, "traces/canneal_big3.champsimtrace")
*** Reached end of trace: (1, "traces/canneal_big1.champsimtrace")
Heartbeat CPU 1 instructions: 40000006 cycles: 24851900 heartbeat IPC: 1.761 cumulative IPC: 1.61 (Simulation time: 00 hr 40 min 12 sec)
*** Reached end of trace: (2, "traces/canneal_big2.champsimtrace")
*** Reached end of trace: (3, "traces/canneal_big3.champsimtrace")
Heartbeat CPU 2 instructions: 100000001 cycles: 25004204 heartbeat IPC: 4 cumulative IPC: 3.999 (Simulation time: 00 hr 40 min 29 sec)
Heartbeat CPU 3 instructions: 100000001 cycles: 25004251 heartbeat IPC: 4 cumulative IPC: 3.999 (Simulation time: 00 hr 40 min 29 sec)
*** Reached end of trace: (0, "traces/canneal_big0.champsimtrace")
*** Reached end of trace: (2, "traces/canneal_big2.champsimtrace")
*** Reached end of trace: (3, "traces/canneal_big3.champsimtrace")
*** Reached end of trace: (0, "traces/canneal_big0.champsimtrace")
Heartbeat CPU 0 instructions: 70000021 cycles: 27105088 heartbeat IPC: 2.601 cumulative IPC: 2.583 (Simulation time: 00 hr 44 min 08 sec)
*** Reached end of trace: (2, "traces/canneal_big2.champsimtrace")
*** Reached end of trace: (3, "traces/canneal_big3.champsimtrace")
Heartbeat CPU 2 instructions: 110000001 cycles: 27504204 heartbeat IPC: 4 cumulative IPC: 3.999 (Simulation time: 00 hr 44 min 53 sec)
Heartbeat CPU 3 instructions: 110000001 cycles: 27504251 heartbeat IPC: 4 cumulative IPC: 3.999 (Simulation time: 00 hr 44 min 53 sec)
*** Reached end of trace: (1, "traces/canneal_big1.champsimtrace")
*** Reached end of trace: (2, "traces/canneal_big2.champsimtrace")
*** Reached end of trace: (3, "traces/canneal_big3.champsimtrace")
*** Reached end of trace: (0, "traces/canneal_big0.champsimtrace")
*** Reached end of trace: (2, "traces/canneal_big2.champsimtrace")
*** Reached end of trace: (3, "traces/canneal_big3.champsimtrace")
Heartbeat CPU 2 instructions: 120000001 cycles: 30004204 heartbeat IPC: 4 cumulative IPC: 3.999 (Simulation time: 00 hr 49 min 15 sec)
Heartbeat CPU 3 instructions: 120000001 cycles: 30004251 heartbeat IPC: 4 cumulative IPC: 3.999 (Simulation time: 00 hr 49 min 15 sec)
*** Reached end of trace: (1, "traces/canneal_big1.champsimtrace")
Heartbeat CPU 1 instructions: 50000008 cycles: 30531221 heartbeat IPC: 1.761 cumulative IPC: 1.638 (Simulation time: 00 hr 50 min 13 sec)
*** Reached end of trace: (0, "traces/canneal_big0.champsimtrace")
Heartbeat CPU 0 instructions: 80000024 cycles: 30950289 heartbeat IPC: 2.601 cumulative IPC: 2.585 (Simulation time: 00 hr 50 min 56 sec)
*** Reached end of trace: (2, "traces/canneal_big2.champsimtrace")
*** Reached end of trace: (3, "traces/canneal_big3.champsimtrace")
*** Reached end of trace: (2, "traces/canneal_big2.champsimtrace")
*** Reached end of trace: (3, "traces/canneal_big3.champsimtrace")
Heartbeat CPU 2 instructions: 130000001 cycles: 32504204 heartbeat IPC: 4 cumulative IPC: 3.999 (Simulation time: 00 hr 53 min 43 sec)
Heartbeat CPU 3 instructions: 130000001 cycles: 32504251 heartbeat IPC: 4 cumulative IPC: 3.999 (Simulation time: 00 hr 53 min 43 sec)
*** Reached end of trace: (0, "traces/canneal_big0.champsimtrace")
*** Reached end of trace: (1, "traces/canneal_big1.champsimtrace")
*** Reached end of trace: (2, "traces/canneal_big2.champsimtrace")
*** Reached end of trace: (3, "traces/canneal_big3.champsimtrace")
*** Reached end of trace: (0, "traces/canneal_big0.champsimtrace")
Heartbeat CPU 0 instructions: 90000027 cycles: 34795490 heartbeat IPC: 2.601 cumulative IPC: 2.587 (Simulation time: 00 hr 57 min 41 sec)
*** Reached end of trace: (2, "traces/canneal_big2.champsimtrace")
*** Reached end of trace: (3, "traces/canneal_big3.champsimtrace")
Heartbeat CPU 2 instructions: 140000001 cycles: 35004204 heartbeat IPC: 4 cumulative IPC: 4 (Simulation time: 00 hr 58 min 06 sec)
Heartbeat CPU 3 instructions: 140000001 cycles: 35004251 heartbeat IPC: 4 cumulative IPC: 4 (Simulation time: 00 hr 58 min 06 sec)
*** Reached end of trace: (1, "traces/canneal_big1.champsimtrace")
Heartbeat CPU 1 instructions: 60000009 cycles: 36210532 heartbeat IPC: 1.761 cumulative IPC: 1.657 (Simulation time: 01 hr 00 min 13 sec)
*** Reached end of trace: (2, "traces/canneal_big2.champsimtrace")
*** Reached end of trace: (3, "traces/canneal_big3.champsimtrace")
*** Reached end of trace: (0, "traces/canneal_big0.champsimtrace")
*** Reached end of trace: (2, "traces/canneal_big2.champsimtrace")
*** Reached end of trace: (3, "traces/canneal_big3.champsimtrace")
Heartbeat CPU 2 instructions: 150000001 cycles: 37504204 heartbeat IPC: 4 cumulative IPC: 4 (Simulation time: 01 hr 02 min 34 sec)
Heartbeat CPU 3 instructions: 150000001 cycles: 37504251 heartbeat IPC: 4 cumulative IPC: 4 (Simulation time: 01 hr 02 min 34 sec)
*** Reached end of trace: (0, "traces/canneal_big0.champsimtrace")
Heartbeat CPU 0 instructions: 100000030 cycles: 38640621 heartbeat IPC: 2.601 cumulative IPC: 2.588 (Simulation time: 01 hr 04 min 37 sec)
*** Reached end of trace: (2, "traces/canneal_big2.champsimtrace")
*** Reached end of trace: (3, "traces/canneal_big3.champsimtrace")
*** Reached end of trace: (1, "traces/canneal_big1.champsimtrace")
*** Reached end of trace: (2, "traces/canneal_big2.champsimtrace")
*** Reached end of trace: (3, "traces/canneal_big3.champsimtrace")
Heartbeat CPU 2 instructions: 160000001 cycles: 40004204 heartbeat IPC: 4 cumulative IPC: 4 (Simulation time: 01 hr 06 min 58 sec)
Heartbeat CPU 3 instructions: 160000001 cycles: 40004251 heartbeat IPC: 4 cumulative IPC: 4 (Simulation time: 01 hr 06 min 58 sec)
*** Reached end of trace: (0, "traces/canneal_big0.champsimtrace")
*** Reached end of trace: (2, "traces/canneal_big2.champsimtrace")
*** Reached end of trace: (3, "traces/canneal_big3.champsimtrace")
*** Reached end of trace: (1, "traces/canneal_big1.champsimtrace")
Heartbeat CPU 1 instructions: 70000011 cycles: 41889864 heartbeat IPC: 1.761 cumulative IPC: 1.671 (Simulation time: 01 hr 10 min 23 sec)
*** Reached end of trace: (0, "traces/canneal_big0.champsimtrace")
Heartbeat CPU 0 instructions: 110000033 cycles: 42485727 heartbeat IPC: 2.601 cumulative IPC: 2.589 (Simulation time: 01 hr 11 min 22 sec)
*** Reached end of trace: (2, "traces/canneal_big2.champsimtrace")
*** Reached end of trace: (3, "traces/canneal_big3.champsimtrace")
Heartbeat CPU 2 instructions: 170000001 cycles: 42504204 heartbeat IPC: 4 cumulative IPC: 4 (Simulation time: 01 hr 11 min 24 sec)
Heartbeat CPU 3 instructions: 170000001 cycles: 42504251 heartbeat IPC: 4 cumulative IPC: 4 (Simulation time: 01 hr 11 min 24 sec)
*** Reached end of trace: (2, "traces/canneal_big2.champsimtrace")
*** Reached end of trace: (3, "traces/canneal_big3.champsimtrace")
*** Reached end of trace: (0, "traces/canneal_big0.champsimtrace")
*** Reached end of trace: (1, "traces/canneal_big1.champsimtrace")
*** Reached end of trace: (2, "traces/canneal_big2.champsimtrace")
*** Reached end of trace: (3, "traces/canneal_big3.champsimtrace")
Heartbeat CPU 2 instructions: 180000001 cycles: 45004204 heartbeat IPC: 4 cumulative IPC: 4 (Simulation time: 01 hr 15 min 43 sec)
Heartbeat CPU 3 instructions: 180000001 cycles: 45004251 heartbeat IPC: 4 cumulative IPC: 4 (Simulation time: 01 hr 15 min 43 sec)
*** Reached end of trace: (2, "traces/canneal_big2.champsimtrace")
*** Reached end of trace: (3, "traces/canneal_big3.champsimtrace")
*** Reached end of trace: (0, "traces/canneal_big0.champsimtrace")
Heartbeat CPU 0 instructions: 120000036 cycles: 46330858 heartbeat IPC: 2.601 cumulative IPC: 2.59 (Simulation time: 01 hr 18 min 02 sec)
*** Reached end of trace: (2, "traces/canneal_big2.champsimtrace")
*** Reached end of trace: (3, "traces/canneal_big3.champsimtrace")
Heartbeat CPU 2 instructions: 190000001 cycles: 47504204 heartbeat IPC: 4 cumulative IPC: 4 (Simulation time: 01 hr 20 min 07 sec)
Heartbeat CPU 3 instructions: 190000001 cycles: 47504251 heartbeat IPC: 4 cumulative IPC: 4 (Simulation time: 01 hr 20 min 07 sec)
*** Reached end of trace: (1, "traces/canneal_big1.champsimtrace")
Heartbeat CPU 1 instructions: 80000013 cycles: 47569245 heartbeat IPC: 1.761 cumulative IPC: 1.682 (Simulation time: 01 hr 20 min 14 sec)
*** Reached end of trace: (0, "traces/canneal_big0.champsimtrace")
*** Reached end of trace: (2, "traces/canneal_big2.champsimtrace")
*** Reached end of trace: (3, "traces/canneal_big3.champsimtrace")
*** Reached end of trace: (2, "traces/canneal_big2.champsimtrace")
*** Reached end of trace: (3, "traces/canneal_big3.champsimtrace")
Heartbeat CPU 2 instructions: 200000001 cycles: 50004204 heartbeat IPC: 4 cumulative IPC: 4 (Simulation time: 01 hr 24 min 22 sec)
Warmup finished CPU 2 instructions: 200000001 cycles: 50004204 cumulative IPC: 4 (Simulation time: 01 hr 24 min 22 sec)
Heartbeat CPU 3 instructions: 200000001 cycles: 50004251 heartbeat IPC: 4 cumulative IPC: 4 (Simulation time: 01 hr 24 min 22 sec)
Warmup finished CPU 3 instructions: 200000001 cycles: 50004251 cumulative IPC: 4 (Simulation time: 01 hr 24 min 22 sec)
*** Reached end of trace: (0, "traces/canneal_big0.champsimtrace")
Heartbeat CPU 0 instructions: 130000039 cycles: 50175989 heartbeat IPC: 2.601 cumulative IPC: 2.591 (Simulation time: 01 hr 24 min 39 sec)
*** Reached end of trace: (1, "traces/canneal_big1.champsimtrace")
*** Reached end of trace: (2, "traces/canneal_big2.champsimtrace")
*** Reached end of trace: (3, "traces/canneal_big3.champsimtrace")
*** Reached end of trace: (0, "traces/canneal_big0.champsimtrace")
*** Reached end of trace: (2, "traces/canneal_big2.champsimtrace")
*** Reached end of trace: (3, "traces/canneal_big3.champsimtrace")
Heartbeat CPU 2 instructions: 210000001 cycles: 52504204 heartbeat IPC: 4 cumulative IPC: 4 (Simulation time: 01 hr 28 min 56 sec)
Heartbeat CPU 3 instructions: 210000001 cycles: 52504251 heartbeat IPC: 4 cumulative IPC: 4 (Simulation time: 01 hr 28 min 56 sec)
*** Reached end of trace: (1, "traces/canneal_big1.champsimtrace")
Heartbeat CPU 1 instructions: 90000015 cycles: 53248606 heartbeat IPC: 1.761 cumulative IPC: 1.69 (Simulation time: 01 hr 30 min 16 sec)
*** Reached end of trace: (2, "traces/canneal_big2.champsimtrace")
*** Reached end of trace: (3, "traces/canneal_big3.champsimtrace")
*** Reached end of trace: (0, "traces/canneal_big0.champsimtrace")
Heartbeat CPU 0 instructions: 140000042 cycles: 54021280 heartbeat IPC: 2.601 cumulative IPC: 2.592 (Simulation time: 01 hr 31 min 31 sec)
*** Reached end of trace: (2, "traces/canneal_big2.champsimtrace")
*** Reached end of trace: (3, "traces/canneal_big3.champsimtrace")
Heartbeat CPU 2 instructions: 220000001 cycles: 55004204 heartbeat IPC: 4 cumulative IPC: 4 (Simulation time: 01 hr 33 min 16 sec)
Heartbeat CPU 3 instructions: 220000001 cycles: 55004251 heartbeat IPC: 4 cumulative IPC: 4 (Simulation time: 01 hr 33 min 16 sec)
*** Reached end of trace: (0, "traces/canneal_big0.champsimtrace")
*** Reached end of trace: (1, "traces/canneal_big1.champsimtrace")
*** Reached end of trace: (2, "traces/canneal_big2.champsimtrace")
*** Reached end of trace: (3, "traces/canneal_big3.champsimtrace")
*** Reached end of trace: (2, "traces/canneal_big2.champsimtrace")
*** Reached end of trace: (3, "traces/canneal_big3.champsimtrace")
Heartbeat CPU 2 instructions: 230000001 cycles: 57504204 heartbeat IPC: 4 cumulative IPC: 4 (Simulation time: 01 hr 37 min 37 sec)
Heartbeat CPU 3 instructions: 230000001 cycles: 57504251 heartbeat IPC: 4 cumulative IPC: 4 (Simulation time: 01 hr 37 min 37 sec)
*** Reached end of trace: (0, "traces/canneal_big0.champsimtrace")
Heartbeat CPU 0 instructions: 150000045 cycles: 57866571 heartbeat IPC: 2.601 cumulative IPC: 2.592 (Simulation time: 01 hr 38 min 18 sec)
*** Reached end of trace: (2, "traces/canneal_big2.champsimtrace")
*** Reached end of trace: (3, "traces/canneal_big3.champsimtrace")
*** Reached end of trace: (1, "traces/canneal_big1.champsimtrace")
Heartbeat CPU 1 instructions: 100000017 cycles: 58927987 heartbeat IPC: 1.761 cumulative IPC: 1.697 (Simulation time: 01 hr 40 min 14 sec)
*** Reached end of trace: (0, "traces/canneal_big0.champsimtrace")
*** Reached end of trace: (2, "traces/canneal_big2.champsimtrace")
*** Reached end of trace: (3, "traces/canneal_big3.champsimtrace")
Heartbeat CPU 2 instructions: 240000001 cycles: 60004204 heartbeat IPC: 4 cumulative IPC: 4 (Simulation time: 01 hr 41 min 59 sec)
Heartbeat CPU 3 instructions: 240000001 cycles: 60004251 heartbeat IPC: 4 cumulative IPC: 4 (Simulation time: 01 hr 41 min 59 sec)
*** Reached end of trace: (2, "traces/canneal_big2.champsimtrace")
*** Reached end of trace: (3, "traces/canneal_big3.champsimtrace")
*** Reached end of trace: (0, "traces/canneal_big0.champsimtrace")
Heartbeat CPU 0 instructions: 160000048 cycles: 61711912 heartbeat IPC: 2.601 cumulative IPC: 2.593 (Simulation time: 01 hr 45 min 02 sec)
*** Reached end of trace: (1, "traces/canneal_big1.champsimtrace")
*** Reached end of trace: (2, "traces/canneal_big2.champsimtrace")
*** Reached end of trace: (3, "traces/canneal_big3.champsimtrace")
Heartbeat CPU 2 instructions: 250000001 cycles: 62504204 heartbeat IPC: 4 cumulative IPC: 4 (Simulation time: 01 hr 46 min 29 sec)
Heartbeat CPU 3 instructions: 250000001 cycles: 62504251 heartbeat IPC: 4 cumulative IPC: 4 (Simulation time: 01 hr 46 min 29 sec)
*** Reached end of trace: (0, "traces/canneal_big0.champsimtrace")
*** Reached end of trace: (2, "traces/canneal_big2.champsimtrace")
*** Reached end of trace: (3, "traces/canneal_big3.champsimtrace")
*** Reached end of trace: (1, "traces/canneal_big1.champsimtrace")
Heartbeat CPU 1 instructions: 110000019 cycles: 64607348 heartbeat IPC: 1.761 cumulative IPC: 1.703 (Simulation time: 01 hr 50 min 12 sec)
*** Reached end of trace: (2, "traces/canneal_big2.champsimtrace")
*** Reached end of trace: (3, "traces/canneal_big3.champsimtrace")
Heartbeat CPU 2 instructions: 260000001 cycles: 65004204 heartbeat IPC: 4 cumulative IPC: 4 (Simulation time: 01 hr 50 min 53 sec)
Heartbeat CPU 3 instructions: 260000001 cycles: 65004251 heartbeat IPC: 4 cumulative IPC: 4 (Simulation time: 01 hr 50 min 53 sec)
*** Reached end of trace: (0, "traces/canneal_big0.champsimtrace")
Heartbeat CPU 0 instructions: 170000051 cycles: 65557253 heartbeat IPC: 2.601 cumulative IPC: 2.593 (Simulation time: 01 hr 51 min 49 sec)
*** Reached end of trace: (2, "traces/canneal_big2.champsimtrace")
*** Reached end of trace: (3, "traces/canneal_big3.champsimtrace")
*** Reached end of trace: (1, "traces/canneal_big1.champsimtrace")
*** Reached end of trace: (0, "traces/canneal_big0.champsimtrace")
*** Reached end of trace: (2, "traces/canneal_big2.champsimtrace")
*** Reached end of trace: (3, "traces/canneal_big3.champsimtrace")
Heartbeat CPU 2 instructions: 270000001 cycles: 67504204 heartbeat IPC: 4 cumulative IPC: 4 (Simulation time: 01 hr 55 min 15 sec)
Heartbeat CPU 3 instructions: 270000001 cycles: 67504251 heartbeat IPC: 4 cumulative IPC: 4 (Simulation time: 01 hr 55 min 15 sec)
*** Reached end of trace: (2, "traces/canneal_big2.champsimtrace")
*** Reached end of trace: (3, "traces/canneal_big3.champsimtrace")
*** Reached end of trace: (0, "traces/canneal_big0.champsimtrace")
Heartbeat CPU 0 instructions: 180000054 cycles: 69402594 heartbeat IPC: 2.601 cumulative IPC: 2.594 (Simulation time: 01 hr 58 min 36 sec)
*** Reached end of trace: (2, "traces/canneal_big2.champsimtrace")
*** Reached end of trace: (3, "traces/canneal_big3.champsimtrace")
Heartbeat CPU 2 instructions: 280000001 cycles: 70004204 heartbeat IPC: 4 cumulative IPC: 4 (Simulation time: 01 hr 59 min 46 sec)
Heartbeat CPU 3 instructions: 280000001 cycles: 70004251 heartbeat IPC: 4 cumulative IPC: 4 (Simulation time: 01 hr 59 min 46 sec)
*** Reached end of trace: (1, "traces/canneal_big1.champsimtrace")
Heartbeat CPU 1 instructions: 120000021 cycles: 70286679 heartbeat IPC: 1.761 cumulative IPC: 1.707 (Simulation time: 02 hr 00 min 18 sec)
*** Reached end of trace: (2, "traces/canneal_big2.champsimtrace")
*** Reached end of trace: (3, "traces/canneal_big3.champsimtrace")
*** Reached end of trace: (0, "traces/canneal_big0.champsimtrace")
*** Reached end of trace: (2, "traces/canneal_big2.champsimtrace")
*** Reached end of trace: (3, "traces/canneal_big3.champsimtrace")
Heartbeat CPU 2 instructions: 290000001 cycles: 72504204 heartbeat IPC: 4 cumulative IPC: 4 (Simulation time: 02 hr 04 min 08 sec)
Heartbeat CPU 3 instructions: 290000001 cycles: 72504251 heartbeat IPC: 4 cumulative IPC: 4 (Simulation time: 02 hr 04 min 08 sec)
*** Reached end of trace: (1, "traces/canneal_big1.champsimtrace")
*** Reached end of trace: (0, "traces/canneal_big0.champsimtrace")
Heartbeat CPU 0 instructions: 190000057 cycles: 73247935 heartbeat IPC: 2.601 cumulative IPC: 2.594 (Simulation time: 02 hr 05 min 21 sec)
*** Reached end of trace: (2, "traces/canneal_big2.champsimtrace")
*** Reached end of trace: (3, "traces/canneal_big3.champsimtrace")
*** Reached end of trace: (2, "traces/canneal_big2.champsimtrace")
*** Reached end of trace: (3, "traces/canneal_big3.champsimtrace")
Heartbeat CPU 2 instructions: 300000001 cycles: 75004204 heartbeat IPC: 4 cumulative IPC: 4 (Simulation time: 02 hr 08 min 27 sec)
Heartbeat CPU 3 instructions: 300000001 cycles: 75004251 heartbeat IPC: 4 cumulative IPC: 4 (Simulation time: 02 hr 08 min 27 sec)
*** Reached end of trace: (0, "traces/canneal_big0.champsimtrace")
*** Reached end of trace: (1, "traces/canneal_big1.champsimtrace")
Heartbeat CPU 1 instructions: 130000022 cycles: 75966004 heartbeat IPC: 1.761 cumulative IPC: 1.711 (Simulation time: 02 hr 10 min 02 sec)
*** Reached end of trace: (2, "traces/canneal_big2.champsimtrace")
*** Reached end of trace: (3, "traces/canneal_big3.champsimtrace")
*** Reached end of trace: (0, "traces/canneal_big0.champsimtrace")
Warmup finished CPU 0 instructions: 200000000 cycles: 77093254 cumulative IPC: 2.594 (Simulation time: 02 hr 11 min 51 sec)
Heartbeat CPU 0 instructions: 200000060 cycles: 77093266 heartbeat IPC: 2.601 cumulative IPC: 2.594 (Simulation time: 02 hr 11 min 51 sec)
*** Reached end of trace: (2, "traces/canneal_big2.champsimtrace")
*** Reached end of trace: (3, "traces/canneal_big3.champsimtrace")
Heartbeat CPU 2 instructions: 310000001 cycles: 77504204 heartbeat IPC: 4 cumulative IPC: 4 (Simulation time: 02 hr 12 min 36 sec)
Heartbeat CPU 3 instructions: 310000001 cycles: 77504251 heartbeat IPC: 4 cumulative IPC: 4 (Simulation time: 02 hr 12 min 36 sec)
*** Reached end of trace: (2, "traces/canneal_big2.champsimtrace")
*** Reached end of trace: (3, "traces/canneal_big3.champsimtrace")
*** Reached end of trace: (1, "traces/canneal_big1.champsimtrace")
*** Reached end of trace: (0, "traces/canneal_big0.champsimtrace")
*** Reached end of trace: (2, "traces/canneal_big2.champsimtrace")
*** Reached end of trace: (3, "traces/canneal_big3.champsimtrace")
Heartbeat CPU 2 instructions: 320000001 cycles: 80004204 heartbeat IPC: 4 cumulative IPC: 4 (Simulation time: 02 hr 16 min 59 sec)
Heartbeat CPU 3 instructions: 320000001 cycles: 80004251 heartbeat IPC: 4 cumulative IPC: 4 (Simulation time: 02 hr 16 min 59 sec)
*** Reached end of trace: (0, "traces/canneal_big0.champsimtrace")
Heartbeat CPU 0 instructions: 210000063 cycles: 80938597 heartbeat IPC: 2.601 cumulative IPC: 2.595 (Simulation time: 02 hr 18 min 34 sec)
*** Reached end of trace: (2, "traces/canneal_big2.champsimtrace")
*** Reached end of trace: (3, "traces/canneal_big3.champsimtrace")
*** Reached end of trace: (1, "traces/canneal_big1.champsimtrace")
Heartbeat CPU 1 instructions: 140000022 cycles: 81645336 heartbeat IPC: 1.761 cumulative IPC: 1.715 (Simulation time: 02 hr 19 min 49 sec)
*** Reached end of trace: (2, "traces/canneal_big2.champsimtrace")
*** Reached end of trace: (3, "traces/canneal_big3.champsimtrace")
Heartbeat CPU 2 instructions: 330000001 cycles: 82504204 heartbeat IPC: 4 cumulative IPC: 4 (Simulation time: 02 hr 21 min 11 sec)
Heartbeat CPU 3 instructions: 330000001 cycles: 82504251 heartbeat IPC: 4 cumulative IPC: 4 (Simulation time: 02 hr 21 min 11 sec)
*** Reached end of trace: (0, "traces/canneal_big0.champsimtrace")
*** Reached end of trace: (2, "traces/canneal_big2.champsimtrace")
*** Reached end of trace: (3, "traces/canneal_big3.champsimtrace")
*** Reached end of trace: (1, "traces/canneal_big1.champsimtrace")
*** Reached end of trace: (0, "traces/canneal_big0.champsimtrace")
Heartbeat CPU 0 instructions: 220000066 cycles: 84783928 heartbeat IPC: 2.601 cumulative IPC: 2.595 (Simulation time: 02 hr 25 min 00 sec)
*** Reached end of trace: (2, "traces/canneal_big2.champsimtrace")
*** Reached end of trace: (3, "traces/canneal_big3.champsimtrace")
Heartbeat CPU 2 instructions: 340000001 cycles: 85004204 heartbeat IPC: 4 cumulative IPC: 4 (Simulation time: 02 hr 25 min 25 sec)
Heartbeat CPU 3 instructions: 340000001 cycles: 85004251 heartbeat IPC: 4 cumulative IPC: 4 (Simulation time: 02 hr 25 min 25 sec)
*** Reached end of trace: (2, "traces/canneal_big2.champsimtrace")
*** Reached end of trace: (3, "traces/canneal_big3.champsimtrace")
*** Reached end of trace: (0, "traces/canneal_big0.champsimtrace")
*** Reached end of trace: (1, "traces/canneal_big1.champsimtrace")
Heartbeat CPU 1 instructions: 150000024 cycles: 87324663 heartbeat IPC: 1.761 cumulative IPC: 1.718 (Simulation time: 02 hr 29 min 14 sec)
*** Reached end of trace: (2, "traces/canneal_big2.champsimtrace")
*** Reached end of trace: (3, "traces/canneal_big3.champsimtrace")
Heartbeat CPU 2 instructions: 350000001 cycles: 87504204 heartbeat IPC: 4 cumulative IPC: 4 (Simulation time: 02 hr 29 min 31 sec)
Heartbeat CPU 3 instructions: 350000001 cycles: 87504251 heartbeat IPC: 4 cumulative IPC: 4 (Simulation time: 02 hr 29 min 31 sec)
*** Reached end of trace: (0, "traces/canneal_big0.champsimtrace")
Heartbeat CPU 0 instructions: 230000069 cycles: 88629259 heartbeat IPC: 2.601 cumulative IPC: 2.595 (Simulation time: 02 hr 31 min 25 sec)
*** Reached end of trace: (2, "traces/canneal_big2.champsimtrace")
*** Reached end of trace: (3, "traces/canneal_big3.champsimtrace")
*** Reached end of trace: (2, "traces/canneal_big2.champsimtrace")
*** Reached end of trace: (3, "traces/canneal_big3.champsimtrace")
Heartbeat CPU 2 instructions: 360000001 cycles: 90004204 heartbeat IPC: 4 cumulative IPC: 4 (Simulation time: 02 hr 33 min 51 sec)
Heartbeat CPU 3 instructions: 360000001 cycles: 90004251 heartbeat IPC: 4 cumulative IPC: 4 (Simulation time: 02 hr 33 min 51 sec)
*** Reached end of trace: (1, "traces/canneal_big1.champsimtrace")
*** Reached end of trace: (0, "traces/canneal_big0.champsimtrace")
*** Reached end of trace: (2, "traces/canneal_big2.champsimtrace")
*** Reached end of trace: (3, "traces/canneal_big3.champsimtrace")
*** Reached end of trace: (0, "traces/canneal_big0.champsimtrace")
Heartbeat CPU 0 instructions: 240000072 cycles: 92474590 heartbeat IPC: 2.601 cumulative IPC: 2.595 (Simulation time: 02 hr 38 min 23 sec)
*** Reached end of trace: (2, "traces/canneal_big2.champsimtrace")
*** Reached end of trace: (3, "traces/canneal_big3.champsimtrace")
Heartbeat CPU 2 instructions: 370000001 cycles: 92504204 heartbeat IPC: 4 cumulative IPC: 4 (Simulation time: 02 hr 38 min 27 sec)
Heartbeat CPU 3 instructions: 370000001 cycles: 92504251 heartbeat IPC: 4 cumulative IPC: 4 (Simulation time: 02 hr 38 min 27 sec)
*** Reached end of trace: (1, "traces/canneal_big1.champsimtrace")
Heartbeat CPU 1 instructions: 160000026 cycles: 93003974 heartbeat IPC: 1.761 cumulative IPC: 1.72 (Simulation time: 02 hr 39 min 14 sec)
*** Reached end of trace: (2, "traces/canneal_big2.champsimtrace")
*** Reached end of trace: (3, "traces/canneal_big3.champsimtrace")
*** Reached end of trace: (0, "traces/canneal_big0.champsimtrace")
*** Reached end of trace: (2, "traces/canneal_big2.champsimtrace")
*** Reached end of trace: (3, "traces/canneal_big3.champsimtrace")
Heartbeat CPU 2 instructions: 380000001 cycles: 95004204 heartbeat IPC: 4 cumulative IPC: 4 (Simulation time: 02 hr 42 min 36 sec)
Heartbeat CPU 3 instructions: 380000001 cycles: 95004251 heartbeat IPC: 4 cumulative IPC: 4 (Simulation time: 02 hr 42 min 36 sec)
*** Reached end of trace: (1, "traces/canneal_big1.champsimtrace")
*** Reached end of trace: (2, "traces/canneal_big2.champsimtrace")
*** Reached end of trace: (3, "traces/canneal_big3.champsimtrace")
*** Reached end of trace: (0, "traces/canneal_big0.champsimtrace")
Heartbeat CPU 0 instructions: 250000075 cycles: 96319991 heartbeat IPC: 2.601 cumulative IPC: 2.596 (Simulation time: 02 hr 44 min 51 sec)
*** Reached end of trace: (2, "traces/canneal_big2.champsimtrace")
*** Reached end of trace: (3, "traces/canneal_big3.champsimtrace")
Heartbeat CPU 2 instructions: 390000001 cycles: 97504204 heartbeat IPC: 4 cumulative IPC: 4 (Simulation time: 02 hr 47 min 03 sec)
Heartbeat CPU 3 instructions: 390000001 cycles: 97504251 heartbeat IPC: 4 cumulative IPC: 4 (Simulation time: 02 hr 47 min 03 sec)
*** Reached end of trace: (0, "traces/canneal_big0.champsimtrace")
*** Reached end of trace: (1, "traces/canneal_big1.champsimtrace")
Heartbeat CPU 1 instructions: 170000028 cycles: 98683280 heartbeat IPC: 1.761 cumulative IPC: 1.723 (Simulation time: 02 hr 49 min 14 sec)
*** Reached end of trace: (2, "traces/canneal_big2.champsimtrace")
*** Reached end of trace: (3, "traces/canneal_big3.champsimtrace")
*** Reached end of trace: (2, "traces/canneal_big2.champsimtrace")
*** Reached end of trace: (3, "traces/canneal_big3.champsimtrace")
Heartbeat CPU 2 instructions: 400000001 cycles: 100004204 heartbeat IPC: 4 cumulative IPC: 4 (Simulation time: 02 hr 51 min 30 sec)
Heartbeat CPU 3 instructions: 400000001 cycles: 100004251 heartbeat IPC: 4 cumulative IPC: 4 (Simulation time: 02 hr 51 min 30 sec)
*** Reached end of trace: (0, "traces/canneal_big0.champsimtrace")
Heartbeat CPU 0 instructions: 260000078 cycles: 100165392 heartbeat IPC: 2.601 cumulative IPC: 2.596 (Simulation time: 02 hr 51 min 48 sec)
*** Reached end of trace: (2, "traces/canneal_big2.champsimtrace")
*** Reached end of trace: (3, "traces/canneal_big3.champsimtrace")
*** Reached end of trace: (1, "traces/canneal_big1.champsimtrace")
*** Reached end of trace: (0, "traces/canneal_big0.champsimtrace")
*** Reached end of trace: (2, "traces/canneal_big2.champsimtrace")
*** Reached end of trace: (3, "traces/canneal_big3.champsimtrace")
Heartbeat CPU 2 instructions: 410000001 cycles: 102504204 heartbeat IPC: 4 cumulative IPC: 4 (Simulation time: 02 hr 55 min 43 sec)
Heartbeat CPU 3 instructions: 410000001 cycles: 102504251 heartbeat IPC: 4 cumulative IPC: 4 (Simulation time: 02 hr 55 min 43 sec)
*** Reached end of trace: (2, "traces/canneal_big2.champsimtrace")
*** Reached end of trace: (3, "traces/canneal_big3.champsimtrace")
*** Reached end of trace: (0, "traces/canneal_big0.champsimtrace")
Heartbeat CPU 0 instructions: 270000081 cycles: 104010793 heartbeat IPC: 2.601 cumulative IPC: 2.596 (Simulation time: 02 hr 58 min 10 sec)
*** Reached end of trace: (1, "traces/canneal_big1.champsimtrace")
Heartbeat CPU 1 instructions: 180000030 cycles: 104362576 heartbeat IPC: 1.761 cumulative IPC: 1.725 (Simulation time: 02 hr 58 min 50 sec)
*** Reached end of trace: (2, "traces/canneal_big2.champsimtrace")
*** Reached end of trace: (3, "traces/canneal_big3.champsimtrace")
Heartbeat CPU 2 instructions: 420000001 cycles: 105004204 heartbeat IPC: 4 cumulative IPC: 4 (Simulation time: 02 hr 59 min 55 sec)
Heartbeat CPU 3 instructions: 420000001 cycles: 105004251 heartbeat IPC: 4 cumulative IPC: 4 (Simulation time: 02 hr 59 min 55 sec)
*** Reached end of trace: (0, "traces/canneal_big0.champsimtrace")
*** Reached end of trace: (2, "traces/canneal_big2.champsimtrace")
*** Reached end of trace: (3, "traces/canneal_big3.champsimtrace")
*** Reached end of trace: (1, "traces/canneal_big1.champsimtrace")
*** Reached end of trace: (2, "traces/canneal_big2.champsimtrace")
*** Reached end of trace: (3, "traces/canneal_big3.champsimtrace")
Heartbeat CPU 2 instructions: 430000001 cycles: 107504204 heartbeat IPC: 4 cumulative IPC: 4 (Simulation time: 03 hr 04 min 05 sec)
Heartbeat CPU 3 instructions: 430000001 cycles: 107504251 heartbeat IPC: 4 cumulative IPC: 4 (Simulation time: 03 hr 04 min 05 sec)
*** Reached end of trace: (0, "traces/canneal_big0.champsimtrace")
Heartbeat CPU 0 instructions: 280000084 cycles: 107856194 heartbeat IPC: 2.601 cumulative IPC: 2.596 (Simulation time: 03 hr 04 min 42 sec)
*** Reached end of trace: (2, "traces/canneal_big2.champsimtrace")
*** Reached end of trace: (3, "traces/canneal_big3.champsimtrace")
*** Reached end of trace: (0, "traces/canneal_big0.champsimtrace")
*** Reached end of trace: (2, "traces/canneal_big2.champsimtrace")
*** Reached end of trace: (3, "traces/canneal_big3.champsimtrace")
Heartbeat CPU 2 instructions: 440000001 cycles: 110004204 heartbeat IPC: 4 cumulative IPC: 4 (Simulation time: 03 hr 08 min 18 sec)
Heartbeat CPU 3 instructions: 440000001 cycles: 110004251 heartbeat IPC: 4 cumulative IPC: 4 (Simulation time: 03 hr 08 min 18 sec)
*** Reached end of trace: (1, "traces/canneal_big1.champsimtrace")
Heartbeat CPU 1 instructions: 190000031 cycles: 110041852 heartbeat IPC: 1.761 cumulative IPC: 1.727 (Simulation time: 03 hr 08 min 22 sec)
*** Reached end of trace: (2, "traces/canneal_big2.champsimtrace")
*** Reached end of trace: (3, "traces/canneal_big3.champsimtrace")
*** Reached end of trace: (0, "traces/canneal_big0.champsimtrace")
Heartbeat CPU 0 instructions: 290000087 cycles: 111701710 heartbeat IPC: 2.6 cumulative IPC: 2.596 (Simulation time: 03 hr 11 min 07 sec)
*** Reached end of trace: (2, "traces/canneal_big2.champsimtrace")
*** Reached end of trace: (3, "traces/canneal_big3.champsimtrace")
Heartbeat CPU 2 instructions: 450000001 cycles: 112504204 heartbeat IPC: 4 cumulative IPC: 4 (Simulation time: 03 hr 12 min 33 sec)
Heartbeat CPU 3 instructions: 450000001 cycles: 112504251 heartbeat IPC: 4 cumulative IPC: 4 (Simulation time: 03 hr 12 min 33 sec)
*** Reached end of trace: (1, "traces/canneal_big1.champsimtrace")
*** Reached end of trace: (0, "traces/canneal_big0.champsimtrace")
*** Reached end of trace: (2, "traces/canneal_big2.champsimtrace")
*** Reached end of trace: (3, "traces/canneal_big3.champsimtrace")
*** Reached end of trace: (2, "traces/canneal_big2.champsimtrace")
*** Reached end of trace: (3, "traces/canneal_big3.champsimtrace")
Heartbeat CPU 2 instructions: 460000001 cycles: 115004204 heartbeat IPC: 4 cumulative IPC: 4 (Simulation time: 03 hr 16 min 52 sec)
Heartbeat CPU 3 instructions: 460000001 cycles: 115004251 heartbeat IPC: 4 cumulative IPC: 4 (Simulation time: 03 hr 16 min 52 sec)
*** Reached end of trace: (0, "traces/canneal_big0.champsimtrace")
Heartbeat CPU 0 instructions: 300000090 cycles: 115547221 heartbeat IPC: 2.6 cumulative IPC: 2.596 (Simulation time: 03 hr 17 min 47 sec)
*** Reached end of trace: (1, "traces/canneal_big1.champsimtrace")
Warmup finished CPU 1 instructions: 200000001 cycles: 115721133 cumulative IPC: 1.728 (Simulation time: 03 hr 18 min 08 sec)
Warmup complete CPU 3 instructions: 462867529 cycles: 115721133 cumulative IPC: 4 (Simulation time: 03 hr 18 min 08 sec)
Warmup complete CPU 2 instructions: 462867717 cycles: 115721133 cumulative IPC: 4 (Simulation time: 03 hr 18 min 08 sec)
Warmup complete CPU 1 instructions: 200000001 cycles: 115721133 cumulative IPC: 1.728 (Simulation time: 03 hr 18 min 08 sec)
Warmup complete CPU 0 instructions: 300616700 cycles: 115721133 cumulative IPC: 2.598 (Simulation time: 03 hr 18 min 08 sec)
Heartbeat CPU 1 instructions: 200000031 cycles: 115721166 heartbeat IPC: 1.761 cumulative IPC: 0.9091 (Simulation time: 03 hr 18 min 08 sec)
*** Reached end of trace: (2, "traces/canneal_big2.champsimtrace")
*** Reached end of trace: (3, "traces/canneal_big3.champsimtrace")
*** Reached end of trace: (0, "traces/canneal_big0.champsimtrace")
*** Reached end of trace: (2, "traces/canneal_big2.champsimtrace")
*** Reached end of trace: (3, "traces/canneal_big3.champsimtrace")
Heartbeat CPU 2 instructions: 470000001 cycles: 117504204 heartbeat IPC: 4 cumulative IPC: 4 (Simulation time: 03 hr 21 min 22 sec)
Heartbeat CPU 3 instructions: 470000001 cycles: 117504251 heartbeat IPC: 4 cumulative IPC: 4 (Simulation time: 03 hr 21 min 22 sec)
*** Reached end of trace: (2, "traces/canneal_big2.champsimtrace")
*** Reached end of trace: (3, "traces/canneal_big3.champsimtrace")
*** Reached end of trace: (0, "traces/canneal_big0.champsimtrace")
Heartbeat CPU 0 instructions: 310000093 cycles: 119253222 heartbeat IPC: 2.698 cumulative IPC: 2.657 (Simulation time: 03 hr 24 min 14 sec)
*** Reached end of trace: (2, "traces/canneal_big2.champsimtrace")
*** Reached end of trace: (3, "traces/canneal_big3.champsimtrace")
Heartbeat CPU 2 instructions: 480000001 cycles: 120004204 heartbeat IPC: 4 cumulative IPC: 4 (Simulation time: 03 hr 25 min 42 sec)
Heartbeat CPU 3 instructions: 480000001 cycles: 120004251 heartbeat IPC: 4 cumulative IPC: 4 (Simulation time: 03 hr 25 min 42 sec)
*** Reached end of trace: (0, "traces/canneal_big0.champsimtrace")
*** Reached end of trace: (2, "traces/canneal_big2.champsimtrace")
*** Reached end of trace: (3, "traces/canneal_big3.champsimtrace")
*** Reached end of trace: (2, "traces/canneal_big2.champsimtrace")
*** Reached end of trace: (3, "traces/canneal_big3.champsimtrace")
Heartbeat CPU 2 instructions: 490000001 cycles: 122504204 heartbeat IPC: 4 cumulative IPC: 4 (Simulation time: 03 hr 30 min 16 sec)
Heartbeat CPU 3 instructions: 490000001 cycles: 122504251 heartbeat IPC: 4 cumulative IPC: 4 (Simulation time: 03 hr 30 min 16 sec)
*** Reached end of trace: (0, "traces/canneal_big0.champsimtrace")
Heartbeat CPU 0 instructions: 320000093 cycles: 123081248 heartbeat IPC: 2.612 cumulative IPC: 2.634 (Simulation time: 03 hr 31 min 15 sec)
*** Reached end of trace: (2, "traces/canneal_big2.champsimtrace")
*** Reached end of trace: (3, "traces/canneal_big3.champsimtrace")
*** Reached end of trace: (0, "traces/canneal_big0.champsimtrace")
*** Reached end of trace: (2, "traces/canneal_big2.champsimtrace")
*** Reached end of trace: (3, "traces/canneal_big3.champsimtrace")
Heartbeat CPU 2 instructions: 500000001 cycles: 125004204 heartbeat IPC: 4 cumulative IPC: 4 (Simulation time: 03 hr 34 min 43 sec)
Heartbeat CPU 3 instructions: 500000001 cycles: 125004251 heartbeat IPC: 4 cumulative IPC: 4 (Simulation time: 03 hr 34 min 43 sec)
*** Reached end of trace: (2, "traces/canneal_big2.champsimtrace")
*** Reached end of trace: (3, "traces/canneal_big3.champsimtrace")
*** Reached end of trace: (0, "traces/canneal_big0.champsimtrace")
Heartbeat CPU 0 instructions: 330000094 cycles: 126899293 heartbeat IPC: 2.619 cumulative IPC: 2.629 (Simulation time: 03 hr 37 min 59 sec)
*** Reached end of trace: (2, "traces/canneal_big2.champsimtrace")
*** Reached end of trace: (3, "traces/canneal_big3.champsimtrace")
Heartbeat CPU 2 instructions: 510000001 cycles: 127504204 heartbeat IPC: 4 cumulative IPC: 4 (Simulation time: 03 hr 39 min 07 sec)
Heartbeat CPU 3 instructions: 510000001 cycles: 127504251 heartbeat IPC: 4 cumulative IPC: 4 (Simulation time: 03 hr 39 min 07 sec)
Simulation finished CPU 3 instructions: 50000000 cycles: 12500000 cumulative IPC: 4 (Simulation time: 03 hr 40 min 23 sec)
Simulation finished CPU 2 instructions: 50000000 cycles: 12500000 cumulative IPC: 4 (Simulation time: 03 hr 40 min 23 sec)
*** Reached end of trace: (2, "traces/canneal_big2.champsimtrace")
*** Reached end of trace: (3, "traces/canneal_big3.champsimtrace")
*** Reached end of trace: (0, "traces/canneal_big0.champsimtrace")
*** Reached end of trace: (2, "traces/canneal_big2.champsimtrace")
*** Reached end of trace: (3, "traces/canneal_big3.champsimtrace")
Heartbeat CPU 2 instructions: 520000001 cycles: 130004204 heartbeat IPC: 4 cumulative IPC: 4 (Simulation time: 03 hr 43 min 31 sec)
Heartbeat CPU 3 instructions: 520000001 cycles: 130004251 heartbeat IPC: 4 cumulative IPC: 4 (Simulation time: 03 hr 43 min 31 sec)
*** Reached end of trace: (1, "traces/canneal_big1.champsimtrace")
*** Reached end of trace: (0, "traces/canneal_big0.champsimtrace")
Heartbeat CPU 0 instructions: 340000094 cycles: 130712659 heartbeat IPC: 2.622 cumulative IPC: 2.627 (Simulation time: 03 hr 44 min 43 sec)
*** Reached end of trace: (2, "traces/canneal_big2.champsimtrace")
*** Reached end of trace: (3, "traces/canneal_big3.champsimtrace")
*** Reached end of trace: (2, "traces/canneal_big2.champsimtrace")
*** Reached end of trace: (3, "traces/canneal_big3.champsimtrace")
Heartbeat CPU 2 instructions: 530000001 cycles: 132504204 heartbeat IPC: 4 cumulative IPC: 4 (Simulation time: 03 hr 47 min 47 sec)
Heartbeat CPU 3 instructions: 530000001 cycles: 132504251 heartbeat IPC: 4 cumulative IPC: 4 (Simulation time: 03 hr 47 min 47 sec)
*** Reached end of trace: (0, "traces/canneal_big0.champsimtrace")
*** Reached end of trace: (2, "traces/canneal_big2.champsimtrace")
*** Reached end of trace: (3, "traces/canneal_big3.champsimtrace")
*** Reached end of trace: (0, "traces/canneal_big0.champsimtrace")
Heartbeat CPU 0 instructions: 350000095 cycles: 134527476 heartbeat IPC: 2.621 cumulative IPC: 2.626 (Simulation time: 03 hr 51 min 17 sec)
Simulation finished CPU 0 instructions: 50000001 cycles: 19084213 cumulative IPC: 2.62 (Simulation time: 03 hr 51 min 48 sec)
*** Reached end of trace: (2, "traces/canneal_big2.champsimtrace")
*** Reached end of trace: (3, "traces/canneal_big3.champsimtrace")
Heartbeat CPU 2 instructions: 540000001 cycles: 135004204 heartbeat IPC: 4 cumulative IPC: 4 (Simulation time: 03 hr 52 min 09 sec)
Heartbeat CPU 3 instructions: 540000001 cycles: 135004251 heartbeat IPC: 4 cumulative IPC: 4 (Simulation time: 03 hr 52 min 09 sec)
*** Reached end of trace: (2, "traces/canneal_big2.champsimtrace")
*** Reached end of trace: (3, "traces/canneal_big3.champsimtrace")
*** Reached end of trace: (0, "traces/canneal_big0.champsimtrace")
*** Reached end of trace: (2, "traces/canneal_big2.champsimtrace")
*** Reached end of trace: (3, "traces/canneal_big3.champsimtrace")
Heartbeat CPU 2 instructions: 550000001 cycles: 137504204 heartbeat IPC: 4 cumulative IPC: 4 (Simulation time: 03 hr 56 min 34 sec)
Heartbeat CPU 3 instructions: 550000001 cycles: 137504251 heartbeat IPC: 4 cumulative IPC: 4 (Simulation time: 03 hr 56 min 34 sec)
*** Reached end of trace: (0, "traces/canneal_big0.champsimtrace")
Heartbeat CPU 0 instructions: 360000095 cycles: 138343598 heartbeat IPC: 2.62 cumulative IPC: 2.625 (Simulation time: 03 hr 57 min 57 sec)
*** Reached end of trace: (2, "traces/canneal_big2.champsimtrace")
*** Reached end of trace: (3, "traces/canneal_big3.champsimtrace")
*** Reached end of trace: (2, "traces/canneal_big2.champsimtrace")
*** Reached end of trace: (3, "traces/canneal_big3.champsimtrace")
Heartbeat CPU 2 instructions: 560000001 cycles: 140004204 heartbeat IPC: 4 cumulative IPC: 4 (Simulation time: 04 hr 00 min 47 sec)
Heartbeat CPU 3 instructions: 560000001 cycles: 140004251 heartbeat IPC: 4 cumulative IPC: 4 (Simulation time: 04 hr 00 min 47 sec)
*** Reached end of trace: (0, "traces/canneal_big0.champsimtrace")
*** Reached end of trace: (2, "traces/canneal_big2.champsimtrace")
*** Reached end of trace: (3, "traces/canneal_big3.champsimtrace")
*** Reached end of trace: (0, "traces/canneal_big0.champsimtrace")
Heartbeat CPU 0 instructions: 370000098 cycles: 142159346 heartbeat IPC: 2.621 cumulative IPC: 2.624 (Simulation time: 04 hr 04 min 32 sec)
*** Reached end of trace: (2, "traces/canneal_big2.champsimtrace")
*** Reached end of trace: (3, "traces/canneal_big3.champsimtrace")
Heartbeat CPU 2 instructions: 570000001 cycles: 142504204 heartbeat IPC: 4 cumulative IPC: 4 (Simulation time: 04 hr 05 min 08 sec)
Heartbeat CPU 3 instructions: 570000001 cycles: 142504251 heartbeat IPC: 4 cumulative IPC: 4 (Simulation time: 04 hr 05 min 08 sec)
*** Reached end of trace: (2, "traces/canneal_big2.champsimtrace")
*** Reached end of trace: (3, "traces/canneal_big3.champsimtrace")
*** Reached end of trace: (0, "traces/canneal_big0.champsimtrace")
*** Reached end of trace: (1, "traces/canneal_big1.champsimtrace")
Heartbeat CPU 1 instructions: 210000032 cycles: 144362976 heartbeat IPC: 0.3491 cumulative IPC: 0.3491 (Simulation time: 04 hr 08 min 17 sec)
*** Reached end of trace: (2, "traces/canneal_big2.champsimtrace")
*** Reached end of trace: (3, "traces/canneal_big3.champsimtrace")
Heartbeat CPU 2 instructions: 580000001 cycles: 145004204 heartbeat IPC: 4 cumulative IPC: 4 (Simulation time: 04 hr 09 min 31 sec)
Heartbeat CPU 3 instructions: 580000001 cycles: 145004251 heartbeat IPC: 4 cumulative IPC: 4 (Simulation time: 04 hr 09 min 31 sec)
*** Reached end of trace: (0, "traces/canneal_big0.champsimtrace")
Heartbeat CPU 0 instructions: 380000101 cycles: 145972682 heartbeat IPC: 2.622 cumulative IPC: 2.624 (Simulation time: 04 hr 11 min 10 sec)
*** Reached end of trace: (2, "traces/canneal_big2.champsimtrace")
*** Reached end of trace: (3, "traces/canneal_big3.champsimtrace")
*** Reached end of trace: (2, "traces/canneal_big2.champsimtrace")
*** Reached end of trace: (3, "traces/canneal_big3.champsimtrace")
Heartbeat CPU 2 instructions: 590000001 cycles: 147504204 heartbeat IPC: 4 cumulative IPC: 4 (Simulation time: 04 hr 14 min 00 sec)
Heartbeat CPU 3 instructions: 590000001 cycles: 147504251 heartbeat IPC: 4 cumulative IPC: 4 (Simulation time: 04 hr 14 min 00 sec)
*** Reached end of trace: (0, "traces/canneal_big0.champsimtrace")
*** Reached end of trace: (2, "traces/canneal_big2.champsimtrace")
*** Reached end of trace: (3, "traces/canneal_big3.champsimtrace")
*** Reached end of trace: (0, "traces/canneal_big0.champsimtrace")
Heartbeat CPU 0 instructions: 390000102 cycles: 149787374 heartbeat IPC: 2.621 cumulative IPC: 2.624 (Simulation time: 04 hr 18 min 03 sec)
*** Reached end of trace: (2, "traces/canneal_big2.champsimtrace")
*** Reached end of trace: (3, "traces/canneal_big3.champsimtrace")
Heartbeat CPU 2 instructions: 600000001 cycles: 150004204 heartbeat IPC: 4 cumulative IPC: 4 (Simulation time: 04 hr 18 min 26 sec)
Heartbeat CPU 3 instructions: 600000001 cycles: 150004251 heartbeat IPC: 4 cumulative IPC: 4 (Simulation time: 04 hr 18 min 26 sec)
*** Reached end of trace: (2, "traces/canneal_big2.champsimtrace")
*** Reached end of trace: (3, "traces/canneal_big3.champsimtrace")
*** Reached end of trace: (0, "traces/canneal_big0.champsimtrace")
*** Reached end of trace: (2, "traces/canneal_big2.champsimtrace")
*** Reached end of trace: (3, "traces/canneal_big3.champsimtrace")
Heartbeat CPU 2 instructions: 610000001 cycles: 152504204 heartbeat IPC: 4 cumulative IPC: 4 (Simulation time: 04 hr 22 min 43 sec)
Heartbeat CPU 3 instructions: 610000001 cycles: 152504251 heartbeat IPC: 4 cumulative IPC: 4 (Simulation time: 04 hr 22 min 43 sec)
*** Reached end of trace: (0, "traces/canneal_big0.champsimtrace")
Heartbeat CPU 0 instructions: 400000102 cycles: 153609463 heartbeat IPC: 2.616 cumulative IPC: 2.623 (Simulation time: 04 hr 24 min 38 sec)
*** Reached end of trace: (2, "traces/canneal_big2.champsimtrace")
*** Reached end of trace: (3, "traces/canneal_big3.champsimtrace")
*** Reached end of trace: (2, "traces/canneal_big2.champsimtrace")
*** Reached end of trace: (3, "traces/canneal_big3.champsimtrace")
Heartbeat CPU 2 instructions: 620000001 cycles: 155004204 heartbeat IPC: 4 cumulative IPC: 4 (Simulation time: 04 hr 27 min 08 sec)
Heartbeat CPU 3 instructions: 620000001 cycles: 155004251 heartbeat IPC: 4 cumulative IPC: 4 (Simulation time: 04 hr 27 min 08 sec)
*** Reached end of trace: (0, "traces/canneal_big0.champsimtrace")
*** Reached end of trace: (2, "traces/canneal_big2.champsimtrace")
*** Reached end of trace: (3, "traces/canneal_big3.champsimtrace")
*** Reached end of trace: (0, "traces/canneal_big0.champsimtrace")
Heartbeat CPU 0 instructions: 410000103 cycles: 157433773 heartbeat IPC: 2.615 cumulative IPC: 2.622 (Simulation time: 04 hr 31 min 32 sec)
*** Reached end of trace: (2, "traces/canneal_big2.champsimtrace")
*** Reached end of trace: (3, "traces/canneal_big3.champsimtrace")
Heartbeat CPU 2 instructions: 630000001 cycles: 157504204 heartbeat IPC: 4 cumulative IPC: 4 (Simulation time: 04 hr 31 min 40 sec)
Heartbeat CPU 3 instructions: 630000001 cycles: 157504251 heartbeat IPC: 4 cumulative IPC: 4 (Simulation time: 04 hr 31 min 40 sec)
*** Reached end of trace: (1, "traces/canneal_big1.champsimtrace")
*** Reached end of trace: (2, "traces/canneal_big2.champsimtrace")
*** Reached end of trace: (3, "traces/canneal_big3.champsimtrace")
*** Reached end of trace: (0, "traces/canneal_big0.champsimtrace")
*** Reached end of trace: (2, "traces/canneal_big2.champsimtrace")
*** Reached end of trace: (3, "traces/canneal_big3.champsimtrace")
Heartbeat CPU 2 instructions: 640000001 cycles: 160004204 heartbeat IPC: 4 cumulative IPC: 4 (Simulation time: 04 hr 35 min 57 sec)
Heartbeat CPU 3 instructions: 640000001 cycles: 160004251 heartbeat IPC: 4 cumulative IPC: 4 (Simulation time: 04 hr 35 min 57 sec)
*** Reached end of trace: (0, "traces/canneal_big0.champsimtrace")
Heartbeat CPU 0 instructions: 420000106 cycles: 161247224 heartbeat IPC: 2.622 cumulative IPC: 2.622 (Simulation time: 04 hr 37 min 56 sec)
*** Reached end of trace: (2, "traces/canneal_big2.champsimtrace")
*** Reached end of trace: (3, "traces/canneal_big3.champsimtrace")
*** Reached end of trace: (2, "traces/canneal_big2.champsimtrace")
*** Reached end of trace: (3, "traces/canneal_big3.champsimtrace")
Heartbeat CPU 2 instructions: 650000001 cycles: 162504204 heartbeat IPC: 4 cumulative IPC: 4 (Simulation time: 04 hr 39 min 54 sec)
Heartbeat CPU 3 instructions: 650000001 cycles: 162504251 heartbeat IPC: 4 cumulative IPC: 4 (Simulation time: 04 hr 39 min 54 sec)
*** Reached end of trace: (0, "traces/canneal_big0.champsimtrace")
*** Reached end of trace: (2, "traces/canneal_big2.champsimtrace")
*** Reached end of trace: (3, "traces/canneal_big3.champsimtrace")
*** Reached end of trace: (2, "traces/canneal_big2.champsimtrace")
*** Reached end of trace: (3, "traces/canneal_big3.champsimtrace")
Heartbeat CPU 2 instructions: 660000001 cycles: 165004204 heartbeat IPC: 4 cumulative IPC: 4 (Simulation time: 04 hr 44 min 00 sec)
Heartbeat CPU 3 instructions: 660000001 cycles: 165004251 heartbeat IPC: 4 cumulative IPC: 4 (Simulation time: 04 hr 44 min 00 sec)
*** Reached end of trace: (0, "traces/canneal_big0.champsimtrace")
Heartbeat CPU 0 instructions: 430000106 cycles: 165057313 heartbeat IPC: 2.625 cumulative IPC: 2.622 (Simulation time: 04 hr 44 min 06 sec)
*** Reached end of trace: (2, "traces/canneal_big2.champsimtrace")
*** Reached end of trace: (3, "traces/canneal_big3.champsimtrace")
*** Reached end of trace: (0, "traces/canneal_big0.champsimtrace")
*** Reached end of trace: (2, "traces/canneal_big2.champsimtrace")
*** Reached end of trace: (3, "traces/canneal_big3.champsimtrace")
Heartbeat CPU 2 instructions: 670000001 cycles: 167504204 heartbeat IPC: 4 cumulative IPC: 4 (Simulation time: 04 hr 48 min 20 sec)
Heartbeat CPU 3 instructions: 670000001 cycles: 167504251 heartbeat IPC: 4 cumulative IPC: 4 (Simulation time: 04 hr 48 min 20 sec)
*** Reached end of trace: (2, "traces/canneal_big2.champsimtrace")
*** Reached end of trace: (3, "traces/canneal_big3.champsimtrace")
*** Reached end of trace: (0, "traces/canneal_big0.champsimtrace")
Heartbeat CPU 0 instructions: 440000109 cycles: 168871609 heartbeat IPC: 2.622 cumulative IPC: 2.622 (Simulation time: 04 hr 50 min 39 sec)
*** Reached end of trace: (2, "traces/canneal_big2.champsimtrace")
*** Reached end of trace: (3, "traces/canneal_big3.champsimtrace")
Heartbeat CPU 2 instructions: 680000001 cycles: 170004204 heartbeat IPC: 4 cumulative IPC: 4 (Simulation time: 04 hr 52 min 33 sec)
Heartbeat CPU 3 instructions: 680000001 cycles: 170004251 heartbeat IPC: 4 cumulative IPC: 4 (Simulation time: 04 hr 52 min 33 sec)
*** Reached end of trace: (0, "traces/canneal_big0.champsimtrace")
*** Reached end of trace: (2, "traces/canneal_big2.champsimtrace")
*** Reached end of trace: (3, "traces/canneal_big3.champsimtrace")
*** Reached end of trace: (2, "traces/canneal_big2.champsimtrace")
*** Reached end of trace: (3, "traces/canneal_big3.champsimtrace")
Heartbeat CPU 2 instructions: 690000001 cycles: 172504204 heartbeat IPC: 4 cumulative IPC: 4 (Simulation time: 04 hr 56 min 48 sec)
Heartbeat CPU 3 instructions: 690000001 cycles: 172504251 heartbeat IPC: 4 cumulative IPC: 4 (Simulation time: 04 hr 56 min 48 sec)
*** Reached end of trace: (0, "traces/canneal_big0.champsimtrace")
Heartbeat CPU 0 instructions: 450000110 cycles: 172678976 heartbeat IPC: 2.626 cumulative IPC: 2.623 (Simulation time: 04 hr 57 min 08 sec)
*** Reached end of trace: (1, "traces/canneal_big1.champsimtrace")
Heartbeat CPU 1 instructions: 220000034 cycles: 173012032 heartbeat IPC: 0.3491 cumulative IPC: 0.3491 (Simulation time: 04 hr 57 min 44 sec)
*** Reached end of trace: (2, "traces/canneal_big2.champsimtrace")
*** Reached end of trace: (3, "traces/canneal_big3.champsimtrace")
*** Reached end of trace: (0, "traces/canneal_big0.champsimtrace")
*** Reached end of trace: (2, "traces/canneal_big2.champsimtrace")
*** Reached end of trace: (3, "traces/canneal_big3.champsimtrace")
Heartbeat CPU 2 instructions: 700000001 cycles: 175004204 heartbeat IPC: 4 cumulative IPC: 4 (Simulation time: 05 hr 01 min 06 sec)
Heartbeat CPU 3 instructions: 700000001 cycles: 175004251 heartbeat IPC: 4 cumulative IPC: 4 (Simulation time: 05 hr 01 min 06 sec)
*** Reached end of trace: (2, "traces/canneal_big2.champsimtrace")
*** Reached end of trace: (3, "traces/canneal_big3.champsimtrace")
*** Reached end of trace: (0, "traces/canneal_big0.champsimtrace")
Heartbeat CPU 0 instructions: 460000113 cycles: 176489649 heartbeat IPC: 2.624 cumulative IPC: 2.623 (Simulation time: 05 hr 03 min 37 sec)
*** Reached end of trace: (2, "traces/canneal_big2.champsimtrace")
*** Reached end of trace: (3, "traces/canneal_big3.champsimtrace")
Heartbeat CPU 2 instructions: 710000001 cycles: 177504204 heartbeat IPC: 4 cumulative IPC: 4 (Simulation time: 05 hr 05 min 24 sec)
Heartbeat CPU 3 instructions: 710000001 cycles: 177504251 heartbeat IPC: 4 cumulative IPC: 4 (Simulation time: 05 hr 05 min 24 sec)
*** Reached end of trace: (0, "traces/canneal_big0.champsimtrace")
*** Reached end of trace: (2, "traces/canneal_big2.champsimtrace")
*** Reached end of trace: (3, "traces/canneal_big3.champsimtrace")
*** Reached end of trace: (2, "traces/canneal_big2.champsimtrace")
*** Reached end of trace: (3, "traces/canneal_big3.champsimtrace")
Heartbeat CPU 2 instructions: 720000001 cycles: 180004204 heartbeat IPC: 4 cumulative IPC: 4 (Simulation time: 05 hr 09 min 35 sec)
Heartbeat CPU 3 instructions: 720000001 cycles: 180004251 heartbeat IPC: 4 cumulative IPC: 4 (Simulation time: 05 hr 09 min 35 sec)
*** Reached end of trace: (0, "traces/canneal_big0.champsimtrace")
Heartbeat CPU 0 instructions: 470000113 cycles: 180306948 heartbeat IPC: 2.62 cumulative IPC: 2.623 (Simulation time: 05 hr 10 min 07 sec)
*** Reached end of trace: (2, "traces/canneal_big2.champsimtrace")
*** Reached end of trace: (3, "traces/canneal_big3.champsimtrace")
*** Reached end of trace: (0, "traces/canneal_big0.champsimtrace")
*** Reached end of trace: (2, "traces/canneal_big2.champsimtrace")
*** Reached end of trace: (3, "traces/canneal_big3.champsimtrace")
Heartbeat CPU 2 instructions: 730000001 cycles: 182504204 heartbeat IPC: 4 cumulative IPC: 4 (Simulation time: 05 hr 13 min 54 sec)
Heartbeat CPU 3 instructions: 730000001 cycles: 182504251 heartbeat IPC: 4 cumulative IPC: 4 (Simulation time: 05 hr 13 min 54 sec)
*** Reached end of trace: (2, "traces/canneal_big2.champsimtrace")
*** Reached end of trace: (3, "traces/canneal_big3.champsimtrace")
*** Reached end of trace: (0, "traces/canneal_big0.champsimtrace")
Heartbeat CPU 0 instructions: 480000114 cycles: 184124005 heartbeat IPC: 2.62 cumulative IPC: 2.622 (Simulation time: 05 hr 16 min 34 sec)
*** Reached end of trace: (2, "traces/canneal_big2.champsimtrace")
*** Reached end of trace: (3, "traces/canneal_big3.champsimtrace")
Heartbeat CPU 2 instructions: 740000001 cycles: 185004204 heartbeat IPC: 4 cumulative IPC: 4 (Simulation time: 05 hr 18 min 19 sec)
Heartbeat CPU 3 instructions: 740000001 cycles: 185004251 heartbeat IPC: 4 cumulative IPC: 4 (Simulation time: 05 hr 18 min 19 sec)
*** Reached end of trace: (0, "traces/canneal_big0.champsimtrace")
*** Reached end of trace: (2, "traces/canneal_big2.champsimtrace")
*** Reached end of trace: (3, "traces/canneal_big3.champsimtrace")
*** Reached end of trace: (1, "traces/canneal_big1.champsimtrace")
*** Reached end of trace: (2, "traces/canneal_big2.champsimtrace")
*** Reached end of trace: (3, "traces/canneal_big3.champsimtrace")
Heartbeat CPU 2 instructions: 750000001 cycles: 187504204 heartbeat IPC: 4 cumulative IPC: 4 (Simulation time: 05 hr 23 min 35 sec)
Heartbeat CPU 3 instructions: 750000001 cycles: 187504251 heartbeat IPC: 4 cumulative IPC: 4 (Simulation time: 05 hr 23 min 35 sec)
*** Reached end of trace: (0, "traces/canneal_big0.champsimtrace")
Heartbeat CPU 0 instructions: 490000117 cycles: 187939181 heartbeat IPC: 2.621 cumulative IPC: 2.622 (Simulation time: 05 hr 24 min 24 sec)
*** Reached end of trace: (2, "traces/canneal_big2.champsimtrace")
*** Reached end of trace: (3, "traces/canneal_big3.champsimtrace")
*** Reached end of trace: (0, "traces/canneal_big0.champsimtrace")
*** Reached end of trace: (2, "traces/canneal_big2.champsimtrace")
*** Reached end of trace: (3, "traces/canneal_big3.champsimtrace")
Heartbeat CPU 2 instructions: 760000001 cycles: 190004204 heartbeat IPC: 4 cumulative IPC: 4 (Simulation time: 05 hr 28 min 19 sec)
Heartbeat CPU 3 instructions: 760000001 cycles: 190004251 heartbeat IPC: 4 cumulative IPC: 4 (Simulation time: 05 hr 28 min 19 sec)
*** Reached end of trace: (2, "traces/canneal_big2.champsimtrace")
*** Reached end of trace: (3, "traces/canneal_big3.champsimtrace")
*** Reached end of trace: (0, "traces/canneal_big0.champsimtrace")
Heartbeat CPU 0 instructions: 500000120 cycles: 191752067 heartbeat IPC: 2.623 cumulative IPC: 2.622 (Simulation time: 05 hr 31 min 33 sec)
*** Reached end of trace: (2, "traces/canneal_big2.champsimtrace")
*** Reached end of trace: (3, "traces/canneal_big3.champsimtrace")
Heartbeat CPU 2 instructions: 770000001 cycles: 192504204 heartbeat IPC: 4 cumulative IPC: 4 (Simulation time: 05 hr 32 min 51 sec)
Heartbeat CPU 3 instructions: 770000001 cycles: 192504251 heartbeat IPC: 4 cumulative IPC: 4 (Simulation time: 05 hr 32 min 51 sec)
*** Reached end of trace: (0, "traces/canneal_big0.champsimtrace")
*** Reached end of trace: (2, "traces/canneal_big2.champsimtrace")
*** Reached end of trace: (3, "traces/canneal_big3.champsimtrace")
*** Reached end of trace: (2, "traces/canneal_big2.champsimtrace")
*** Reached end of trace: (3, "traces/canneal_big3.champsimtrace")
Heartbeat CPU 2 instructions: 780000001 cycles: 195004204 heartbeat IPC: 4 cumulative IPC: 4 (Simulation time: 05 hr 37 min 42 sec)
Heartbeat CPU 3 instructions: 780000001 cycles: 195004251 heartbeat IPC: 4 cumulative IPC: 4 (Simulation time: 05 hr 37 min 42 sec)
*** Reached end of trace: (0, "traces/canneal_big0.champsimtrace")
Heartbeat CPU 0 instructions: 510000123 cycles: 195567248 heartbeat IPC: 2.621 cumulative IPC: 2.622 (Simulation time: 05 hr 38 min 47 sec)
*** Reached end of trace: (2, "traces/canneal_big2.champsimtrace")
*** Reached end of trace: (3, "traces/canneal_big3.champsimtrace")
*** Reached end of trace: (0, "traces/canneal_big0.champsimtrace")
*** Reached end of trace: (2, "traces/canneal_big2.champsimtrace")
*** Reached end of trace: (3, "traces/canneal_big3.champsimtrace")
Heartbeat CPU 2 instructions: 790000001 cycles: 197504204 heartbeat IPC: 4 cumulative IPC: 4 (Simulation time: 05 hr 42 min 27 sec)
Heartbeat CPU 3 instructions: 790000001 cycles: 197504251 heartbeat IPC: 4 cumulative IPC: 4 (Simulation time: 05 hr 42 min 27 sec)
*** Reached end of trace: (2, "traces/canneal_big2.champsimtrace")
*** Reached end of trace: (3, "traces/canneal_big3.champsimtrace")
*** Reached end of trace: (0, "traces/canneal_big0.champsimtrace")
Heartbeat CPU 0 instructions: 520000126 cycles: 199380054 heartbeat IPC: 2.623 cumulative IPC: 2.622 (Simulation time: 05 hr 46 min 00 sec)
*** Reached end of trace: (2, "traces/canneal_big2.champsimtrace")
*** Reached end of trace: (3, "traces/canneal_big3.champsimtrace")
Heartbeat CPU 2 instructions: 800000001 cycles: 200004204 heartbeat IPC: 4 cumulative IPC: 4 (Simulation time: 05 hr 47 min 13 sec)
Heartbeat CPU 3 instructions: 800000001 cycles: 200004251 heartbeat IPC: 4 cumulative IPC: 4 (Simulation time: 05 hr 47 min 13 sec)
*** Reached end of trace: (2, "traces/canneal_big2.champsimtrace")
*** Reached end of trace: (3, "traces/canneal_big3.champsimtrace")
*** Reached end of trace: (0, "traces/canneal_big0.champsimtrace")
*** Reached end of trace: (1, "traces/canneal_big1.champsimtrace")
Heartbeat CPU 1 instructions: 230000035 cycles: 201628768 heartbeat IPC: 0.3494 cumulative IPC: 0.3492 (Simulation time: 05 hr 50 min 14 sec)
*** Reached end of trace: (2, "traces/canneal_big2.champsimtrace")
*** Reached end of trace: (3, "traces/canneal_big3.champsimtrace")
Heartbeat CPU 2 instructions: 810000001 cycles: 202504204 heartbeat IPC: 4 cumulative IPC: 4 (Simulation time: 05 hr 51 min 53 sec)
Heartbeat CPU 3 instructions: 810000001 cycles: 202504251 heartbeat IPC: 4 cumulative IPC: 4 (Simulation time: 05 hr 51 min 53 sec)
*** Reached end of trace: (0, "traces/canneal_big0.champsimtrace")
Heartbeat CPU 0 instructions: 530000129 cycles: 203188803 heartbeat IPC: 2.626 cumulative IPC: 2.622 (Simulation time: 05 hr 53 min 08 sec)
*** Reached end of trace: (2, "traces/canneal_big2.champsimtrace")
*** Reached end of trace: (3, "traces/canneal_big3.champsimtrace")
*** Reached end of trace: (2, "traces/canneal_big2.champsimtrace")
*** Reached end of trace: (3, "traces/canneal_big3.champsimtrace")
Heartbeat CPU 2 instructions: 820000001 cycles: 205004204 heartbeat IPC: 4 cumulative IPC: 4 (Simulation time: 05 hr 56 min 35 sec)
Heartbeat CPU 3 instructions: 820000001 cycles: 205004251 heartbeat IPC: 4 cumulative IPC: 4 (Simulation time: 05 hr 56 min 35 sec)
*** Reached end of trace: (0, "traces/canneal_big0.champsimtrace")
*** Reached end of trace: (2, "traces/canneal_big2.champsimtrace")
*** Reached end of trace: (3, "traces/canneal_big3.champsimtrace")
*** Reached end of trace: (0, "traces/canneal_big0.champsimtrace")
Heartbeat CPU 0 instructions: 540000129 cycles: 207006286 heartbeat IPC: 2.62 cumulative IPC: 2.622 (Simulation time: 06 hr 00 min 17 sec)
*** Reached end of trace: (2, "traces/canneal_big2.champsimtrace")
*** Reached end of trace: (3, "traces/canneal_big3.champsimtrace")
Heartbeat CPU 2 instructions: 830000001 cycles: 207504204 heartbeat IPC: 4 cumulative IPC: 4 (Simulation time: 06 hr 01 min 13 sec)
Heartbeat CPU 3 instructions: 830000001 cycles: 207504251 heartbeat IPC: 4 cumulative IPC: 4 (Simulation time: 06 hr 01 min 13 sec)
*** Reached end of trace: (2, "traces/canneal_big2.champsimtrace")
*** Reached end of trace: (3, "traces/canneal_big3.champsimtrace")
*** Reached end of trace: (0, "traces/canneal_big0.champsimtrace")
*** Reached end of trace: (2, "traces/canneal_big2.champsimtrace")
*** Reached end of trace: (3, "traces/canneal_big3.champsimtrace")
Heartbeat CPU 2 instructions: 840000001 cycles: 210004204 heartbeat IPC: 4 cumulative IPC: 4 (Simulation time: 06 hr 06 min 06 sec)
Heartbeat CPU 3 instructions: 840000001 cycles: 210004251 heartbeat IPC: 4 cumulative IPC: 4 (Simulation time: 06 hr 06 min 06 sec)
*** Reached end of trace: (0, "traces/canneal_big0.champsimtrace")
Heartbeat CPU 0 instructions: 550000132 cycles: 210824825 heartbeat IPC: 2.619 cumulative IPC: 2.622 (Simulation time: 06 hr 07 min 42 sec)
*** Reached end of trace: (2, "traces/canneal_big2.champsimtrace")
*** Reached end of trace: (3, "traces/canneal_big3.champsimtrace")
*** Reached end of trace: (2, "traces/canneal_big2.champsimtrace")
*** Reached end of trace: (3, "traces/canneal_big3.champsimtrace")
Heartbeat CPU 2 instructions: 850000001 cycles: 212504204 heartbeat IPC: 4 cumulative IPC: 4 (Simulation time: 06 hr 11 min 05 sec)
Heartbeat CPU 3 instructions: 850000001 cycles: 212504251 heartbeat IPC: 4 cumulative IPC: 4 (Simulation time: 06 hr 11 min 05 sec)
*** Reached end of trace: (0, "traces/canneal_big0.champsimtrace")
*** Reached end of trace: (2, "traces/canneal_big2.champsimtrace")
*** Reached end of trace: (3, "traces/canneal_big3.champsimtrace")
*** Reached end of trace: (0, "traces/canneal_big0.champsimtrace")
Heartbeat CPU 0 instructions: 560000135 cycles: 214640841 heartbeat IPC: 2.621 cumulative IPC: 2.622 (Simulation time: 06 hr 15 min 16 sec)
*** Reached end of trace: (2, "traces/canneal_big2.champsimtrace")
*** Reached end of trace: (3, "traces/canneal_big3.champsimtrace")
Heartbeat CPU 2 instructions: 860000001 cycles: 215004204 heartbeat IPC: 4 cumulative IPC: 4 (Simulation time: 06 hr 15 min 57 sec)
Heartbeat CPU 3 instructions: 860000001 cycles: 215004251 heartbeat IPC: 4 cumulative IPC: 4 (Simulation time: 06 hr 15 min 57 sec)
*** Reached end of trace: (1, "traces/canneal_big1.champsimtrace")
*** Reached end of trace: (2, "traces/canneal_big2.champsimtrace")
*** Reached end of trace: (3, "traces/canneal_big3.champsimtrace")
*** Reached end of trace: (0, "traces/canneal_big0.champsimtrace")
*** Reached end of trace: (2, "traces/canneal_big2.champsimtrace")
*** Reached end of trace: (3, "traces/canneal_big3.champsimtrace")
Heartbeat CPU 2 instructions: 870000001 cycles: 217504204 heartbeat IPC: 4 cumulative IPC: 4 (Simulation time: 06 hr 20 min 43 sec)
Heartbeat CPU 3 instructions: 870000001 cycles: 217504251 heartbeat IPC: 4 cumulative IPC: 4 (Simulation time: 06 hr 20 min 43 sec)
*** Reached end of trace: (0, "traces/canneal_big0.champsimtrace")
Heartbeat CPU 0 instructions: 570000136 cycles: 218449858 heartbeat IPC: 2.625 cumulative IPC: 2.622 (Simulation time: 06 hr 22 min 27 sec)
*** Reached end of trace: (2, "traces/canneal_big2.champsimtrace")
*** Reached end of trace: (3, "traces/canneal_big3.champsimtrace")
*** Reached end of trace: (2, "traces/canneal_big2.champsimtrace")
*** Reached end of trace: (3, "traces/canneal_big3.champsimtrace")
Heartbeat CPU 2 instructions: 880000001 cycles: 220004204 heartbeat IPC: 4 cumulative IPC: 4 (Simulation time: 06 hr 25 min 29 sec)
Heartbeat CPU 3 instructions: 880000001 cycles: 220004251 heartbeat IPC: 4 cumulative IPC: 4 (Simulation time: 06 hr 25 min 29 sec)
*** Reached end of trace: (0, "traces/canneal_big0.champsimtrace")
*** Reached end of trace: (2, "traces/canneal_big2.champsimtrace")
*** Reached end of trace: (3, "traces/canneal_big3.champsimtrace")
*** Reached end of trace: (0, "traces/canneal_big0.champsimtrace")
Heartbeat CPU 0 instructions: 580000136 cycles: 222261375 heartbeat IPC: 2.624 cumulative IPC: 2.622 (Simulation time: 06 hr 29 min 56 sec)
*** Reached end of trace: (2, "traces/canneal_big2.champsimtrace")
*** Reached end of trace: (3, "traces/canneal_big3.champsimtrace")
Heartbeat CPU 2 instructions: 890000001 cycles: 222504204 heartbeat IPC: 4 cumulative IPC: 4 (Simulation time: 06 hr 30 min 24 sec)
Heartbeat CPU 3 instructions: 890000001 cycles: 222504251 heartbeat IPC: 4 cumulative IPC: 4 (Simulation time: 06 hr 30 min 24 sec)
*** Reached end of trace: (2, "traces/canneal_big2.champsimtrace")
*** Reached end of trace: (3, "traces/canneal_big3.champsimtrace")
*** Reached end of trace: (0, "traces/canneal_big0.champsimtrace")
*** Reached end of trace: (2, "traces/canneal_big2.champsimtrace")
*** Reached end of trace: (3, "traces/canneal_big3.champsimtrace")
Heartbeat CPU 2 instructions: 900000001 cycles: 225004204 heartbeat IPC: 4 cumulative IPC: 4 (Simulation time: 06 hr 35 min 03 sec)
Heartbeat CPU 3 instructions: 900000001 cycles: 225004251 heartbeat IPC: 4 cumulative IPC: 4 (Simulation time: 06 hr 35 min 03 sec)
*** Reached end of trace: (0, "traces/canneal_big0.champsimtrace")
Heartbeat CPU 0 instructions: 590000137 cycles: 226073677 heartbeat IPC: 2.623 cumulative IPC: 2.622 (Simulation time: 06 hr 37 min 00 sec)
*** Reached end of trace: (2, "traces/canneal_big2.champsimtrace")
*** Reached end of trace: (3, "traces/canneal_big3.champsimtrace")
*** Reached end of trace: (2, "traces/canneal_big2.champsimtrace")
*** Reached end of trace: (3, "traces/canneal_big3.champsimtrace")
Heartbeat CPU 2 instructions: 910000001 cycles: 227504204 heartbeat IPC: 4 cumulative IPC: 4 (Simulation time: 06 hr 39 min 40 sec)
Heartbeat CPU 3 instructions: 910000001 cycles: 227504251 heartbeat IPC: 4 cumulative IPC: 4 (Simulation time: 06 hr 39 min 40 sec)
*** Reached end of trace: (0, "traces/canneal_big0.champsimtrace")
*** Reached end of trace: (2, "traces/canneal_big2.champsimtrace")
*** Reached end of trace: (3, "traces/canneal_big3.champsimtrace")
*** Reached end of trace: (0, "traces/canneal_big0.champsimtrace")
Heartbeat CPU 0 instructions: 600000140 cycles: 229889478 heartbeat IPC: 2.621 cumulative IPC: 2.622 (Simulation time: 06 hr 43 min 57 sec)
*** Reached end of trace: (2, "traces/canneal_big2.champsimtrace")
*** Reached end of trace: (3, "traces/canneal_big3.champsimtrace")
Heartbeat CPU 2 instructions: 920000001 cycles: 230004204 heartbeat IPC: 4 cumulative IPC: 4 (Simulation time: 06 hr 44 min 10 sec)
Heartbeat CPU 3 instructions: 920000001 cycles: 230004251 heartbeat IPC: 4 cumulative IPC: 4 (Simulation time: 06 hr 44 min 10 sec)
*** Reached end of trace: (1, "traces/canneal_big1.champsimtrace")
Heartbeat CPU 1 instructions: 240000036 cycles: 230271319 heartbeat IPC: 0.3491 cumulative IPC: 0.3492 (Simulation time: 06 hr 44 min 39 sec)
*** Reached end of trace: (2, "traces/canneal_big2.champsimtrace")
*** Reached end of trace: (3, "traces/canneal_big3.champsimtrace")
*** Reached end of trace: (0, "traces/canneal_big0.champsimtrace")
*** Reached end of trace: (2, "traces/canneal_big2.champsimtrace")
*** Reached end of trace: (3, "traces/canneal_big3.champsimtrace")
Heartbeat CPU 2 instructions: 930000001 cycles: 232504204 heartbeat IPC: 4 cumulative IPC: 4 (Simulation time: 06 hr 48 min 51 sec)
Heartbeat CPU 3 instructions: 930000001 cycles: 232504251 heartbeat IPC: 4 cumulative IPC: 4 (Simulation time: 06 hr 48 min 51 sec)
*** Reached end of trace: (0, "traces/canneal_big0.champsimtrace")
Heartbeat CPU 0 instructions: 610000143 cycles: 233705576 heartbeat IPC: 2.62 cumulative IPC: 2.622 (Simulation time: 06 hr 51 min 04 sec)
*** Reached end of trace: (2, "traces/canneal_big2.champsimtrace")
*** Reached end of trace: (3, "traces/canneal_big3.champsimtrace")
*** Reached end of trace: (2, "traces/canneal_big2.champsimtrace")
*** Reached end of trace: (3, "traces/canneal_big3.champsimtrace")
Heartbeat CPU 2 instructions: 940000001 cycles: 235004204 heartbeat IPC: 4 cumulative IPC: 4 (Simulation time: 06 hr 53 min 26 sec)
Heartbeat CPU 3 instructions: 940000001 cycles: 235004251 heartbeat IPC: 4 cumulative IPC: 4 (Simulation time: 06 hr 53 min 26 sec)
*** Reached end of trace: (0, "traces/canneal_big0.champsimtrace")
*** Reached end of trace: (2, "traces/canneal_big2.champsimtrace")
*** Reached end of trace: (3, "traces/canneal_big3.champsimtrace")
*** Reached end of trace: (2, "traces/canneal_big2.champsimtrace")
*** Reached end of trace: (3, "traces/canneal_big3.champsimtrace")
Heartbeat CPU 2 instructions: 950000001 cycles: 237504204 heartbeat IPC: 4 cumulative IPC: 4 (Simulation time: 06 hr 58 min 07 sec)
Heartbeat CPU 3 instructions: 950000001 cycles: 237504251 heartbeat IPC: 4 cumulative IPC: 4 (Simulation time: 06 hr 58 min 07 sec)
*** Reached end of trace: (0, "traces/canneal_big0.champsimtrace")
Heartbeat CPU 0 instructions: 620000147 cycles: 237526051 heartbeat IPC: 2.617 cumulative IPC: 2.622 (Simulation time: 06 hr 58 min 09 sec)
*** Reached end of trace: (2, "traces/canneal_big2.champsimtrace")
*** Reached end of trace: (3, "traces/canneal_big3.champsimtrace")
*** Reached end of trace: (0, "traces/canneal_big0.champsimtrace")
*** Reached end of trace: (2, "traces/canneal_big2.champsimtrace")
*** Reached end of trace: (3, "traces/canneal_big3.champsimtrace")
Heartbeat CPU 2 instructions: 960000001 cycles: 240004204 heartbeat IPC: 4 cumulative IPC: 4 (Simulation time: 07 hr 02 min 50 sec)
Heartbeat CPU 3 instructions: 960000001 cycles: 240004251 heartbeat IPC: 4 cumulative IPC: 4 (Simulation time: 07 hr 02 min 50 sec)
*** Reached end of trace: (2, "traces/canneal_big2.champsimtrace")
*** Reached end of trace: (3, "traces/canneal_big3.champsimtrace")
*** Reached end of trace: (0, "traces/canneal_big0.champsimtrace")
Heartbeat CPU 0 instructions: 630000148 cycles: 241340835 heartbeat IPC: 2.621 cumulative IPC: 2.622 (Simulation time: 07 hr 05 min 24 sec)
*** Reached end of trace: (2, "traces/canneal_big2.champsimtrace")
*** Reached end of trace: (3, "traces/canneal_big3.champsimtrace")
Heartbeat CPU 2 instructions: 970000001 cycles: 242504204 heartbeat IPC: 4 cumulative IPC: 4 (Simulation time: 07 hr 07 min 40 sec)
Heartbeat CPU 3 instructions: 970000001 cycles: 242504251 heartbeat IPC: 4 cumulative IPC: 4 (Simulation time: 07 hr 07 min 40 sec)
*** Reached end of trace: (0, "traces/canneal_big0.champsimtrace")
*** Reached end of trace: (2, "traces/canneal_big2.champsimtrace")
*** Reached end of trace: (3, "traces/canneal_big3.champsimtrace")
*** Reached end of trace: (1, "traces/canneal_big1.champsimtrace")
*** Reached end of trace: (2, "traces/canneal_big2.champsimtrace")
*** Reached end of trace: (3, "traces/canneal_big3.champsimtrace")
Heartbeat CPU 2 instructions: 980000001 cycles: 245004204 heartbeat IPC: 4 cumulative IPC: 4 (Simulation time: 07 hr 12 min 22 sec)
Heartbeat CPU 3 instructions: 980000001 cycles: 245004251 heartbeat IPC: 4 cumulative IPC: 4 (Simulation time: 07 hr 12 min 22 sec)
*** Reached end of trace: (0, "traces/canneal_big0.champsimtrace")
Heartbeat CPU 0 instructions: 640000148 cycles: 245155583 heartbeat IPC: 2.621 cumulative IPC: 2.622 (Simulation time: 07 hr 12 min 38 sec)
*** Reached end of trace: (2, "traces/canneal_big2.champsimtrace")
*** Reached end of trace: (3, "traces/canneal_big3.champsimtrace")
*** Reached end of trace: (0, "traces/canneal_big0.champsimtrace")
*** Reached end of trace: (2, "traces/canneal_big2.champsimtrace")
*** Reached end of trace: (3, "traces/canneal_big3.champsimtrace")
Heartbeat CPU 2 instructions: 990000001 cycles: 247504204 heartbeat IPC: 4 cumulative IPC: 4 (Simulation time: 07 hr 16 min 54 sec)
Heartbeat CPU 3 instructions: 990000001 cycles: 247504251 heartbeat IPC: 4 cumulative IPC: 4 (Simulation time: 07 hr 16 min 54 sec)
*** Reached end of trace: (2, "traces/canneal_big2.champsimtrace")
*** Reached end of trace: (3, "traces/canneal_big3.champsimtrace")
*** Reached end of trace: (0, "traces/canneal_big0.champsimtrace")
Heartbeat CPU 0 instructions: 650000150 cycles: 248962034 heartbeat IPC: 2.627 cumulative IPC: 2.622 (Simulation time: 07 hr 19 min 29 sec)
*** Reached end of trace: (2, "traces/canneal_big2.champsimtrace")
*** Reached end of trace: (3, "traces/canneal_big3.champsimtrace")
Heartbeat CPU 2 instructions: 1000000001 cycles: 250004204 heartbeat IPC: 4 cumulative IPC: 4 (Simulation time: 07 hr 21 min 25 sec)
Heartbeat CPU 3 instructions: 1000000001 cycles: 250004251 heartbeat IPC: 4 cumulative IPC: 4 (Simulation time: 07 hr 21 min 25 sec)
*** Reached end of trace: (0, "traces/canneal_big0.champsimtrace")
*** Reached end of trace: (2, "traces/canneal_big2.champsimtrace")
*** Reached end of trace: (3, "traces/canneal_big3.champsimtrace")
*** Reached end of trace: (2, "traces/canneal_big2.champsimtrace")
*** Reached end of trace: (3, "traces/canneal_big3.champsimtrace")
Heartbeat CPU 2 instructions: 1010000001 cycles: 252504204 heartbeat IPC: 4 cumulative IPC: 4 (Simulation time: 07 hr 25 min 55 sec)
Heartbeat CPU 3 instructions: 1010000001 cycles: 252504251 heartbeat IPC: 4 cumulative IPC: 4 (Simulation time: 07 hr 25 min 55 sec)
*** Reached end of trace: (0, "traces/canneal_big0.champsimtrace")
[...]
cpu0->cpu0_ITLB PREFETCH REQUESTED:          0 ISSUED:          0 USEFUL:          0 USELESS:          0
cpu0->cpu0_ITLB AVERAGE MISS LATENCY: 3.959 cycles
cpu0_ITLB COHERENCE INVALIDATIONS:          0
cpu0_ITLB COHERENCE WRITE-HIT OTHER-SHARER EVENTS:          0
cpu0->cpu0_DTLB TOTAL        ACCESS:   62436388 HIT:   62273520 MISS:     162868 MSHR_MERGE:      34909
cpu0->cpu0_DTLB LOAD         ACCESS:   62436388 HIT:   62273520 MISS:     162868 MSHR_MERGE:      34909
cpu0->cpu0_DTLB RFO          ACCESS:          0 HIT:          0 MISS:          0 MSHR_MERGE:          0
cpu0->cpu0_DTLB PREFETCH     ACCESS:          0 HIT:          0 MISS:          0 MSHR_MERGE:          0
cpu0->cpu0_DTLB WRITE        ACCESS:          0 HIT:          0 MISS:          0 MSHR_MERGE:          0
cpu0->cpu0_DTLB TRANSLATION  ACCESS:          0 HIT:          0 MISS:          0 MSHR_MERGE:          0
cpu0->cpu0_DTLB PREFETCH REQUESTED:          0 ISSUED:          0 USEFUL:          0 USELESS:          0
cpu0->cpu0_DTLB AVERAGE MISS LATENCY: 4 cycles
cpu0_DTLB COHERENCE INVALIDATIONS:          0
cpu0_DTLB COHERENCE WRITE-HIT OTHER-SHARER EVENTS:          0
cpu0->LLC TOTAL        ACCESS:    4186692 HIT:    2469241 MISS:    1717451 MSHR_MERGE:          1
cpu0->LLC LOAD         ACCESS:     474786 HIT:     393094 MISS:      81692 MSHR_MERGE:          0
cpu0->LLC RFO          ACCESS:    1845383 HIT:    1028197 MISS:     817186 MSHR_MERGE:          1
cpu0->LLC PREFETCH     ACCESS:          0 HIT:          0 MISS:          0 MSHR_MERGE:          0
cpu0->LLC WRITE        ACCESS:    1866523 HIT:    1047950 MISS:     818573 MSHR_MERGE:          0
cpu0->LLC TRANSLATION  ACCESS:          0 HIT:          0 MISS:          0 MSHR_MERGE:          0
cpu0->LLC PREFETCH REQUESTED:          0 ISSUED:          0 USEFUL:          0 USELESS:          0
cpu0->LLC AVERAGE MISS LATENCY: 218.1 cycles
cpu1->LLC TOTAL        ACCESS:     969649 HIT:     275596 MISS:     694053 MSHR_MERGE:          0
cpu1->LLC LOAD         ACCESS:     775836 HIT:     225496 MISS:     550340 MSHR_MERGE:          0
cpu1->LLC RFO          ACCESS:          0 HIT:          0 MISS:          0 MSHR_MERGE:          0
cpu1->LLC PREFETCH     ACCESS:          0 HIT:          0 MISS:          0 MSHR_MERGE:          0
cpu1->LLC WRITE        ACCESS:          0 HIT:          0 MISS:          0 MSHR_MERGE:          0
cpu1->LLC TRANSLATION  ACCESS:     193813 HIT:      50100 MISS:     143713 MSHR_MERGE:          0
cpu1->LLC PREFETCH REQUESTED:          0 ISSUED:          0 USEFUL:          0 USELESS:          0
cpu1->LLC AVERAGE MISS LATENCY: 539.8 cycles
LLC COHERENCE INVALIDATIONS:      47256
LLC COHERENCE WRITE-HIT OTHER-SHARER EVENTS:      47256

Region of Interest Statistics

CPU 3 cumulative IPC: 4 instructions: 50000000 cycles: 12500000
CPU 3 Branch Prediction Accuracy: -% MPKI: 0 Average ROB Occupancy at Mispredict: -
Branch type MPKI
BRANCH_DIRECT_JUMP: 0
BRANCH_INDIRECT: 0
BRANCH_CONDITIONAL: 0
BRANCH_DIRECT_CALL: 0
BRANCH_INDIRECT_CALL: 0
BRANCH_RETURN: 0


CPU 2 cumulative IPC: 4 instructions: 50000000 cycles: 12500000
CPU 2 Branch Prediction Accuracy: -% MPKI: 0 Average ROB Occupancy at Mispredict: -
Branch type MPKI
BRANCH_DIRECT_JUMP: 0
BRANCH_INDIRECT: 0
BRANCH_CONDITIONAL: 0
BRANCH_DIRECT_CALL: 0
BRANCH_INDIRECT_CALL: 0
BRANCH_RETURN: 0


CPU 1 cumulative IPC: 0.3492 instructions: 50000003 cycles: 143175143
CPU 1 Branch Prediction Accuracy: -% MPKI: 0 Average ROB Occupancy at Mispredict: -
Branch type MPKI
BRANCH_DIRECT_JUMP: 0
BRANCH_INDIRECT: 0
BRANCH_CONDITIONAL: 0
BRANCH_DIRECT_CALL: 0
BRANCH_INDIRECT_CALL: 0
BRANCH_RETURN: 0


CPU 0 cumulative IPC: 2.62 instructions: 50000001 cycles: 19084213
CPU 0 Branch Prediction Accuracy: -% MPKI: 0 Average ROB Occupancy at Mispredict: -
Branch type MPKI
BRANCH_DIRECT_JUMP: 0
BRANCH_INDIRECT: 0
BRANCH_CONDITIONAL: 0
BRANCH_DIRECT_CALL: 0
BRANCH_INDIRECT_CALL: 0
BRANCH_RETURN: 0

cpu3_STLB COHERENCE INVALIDATIONS:          0
cpu3_STLB COHERENCE WRITE-HIT OTHER-SHARER EVENTS:          0
cpu3_L2C COHERENCE INVALIDATIONS:          0
cpu3_L2C COHERENCE WRITE-HIT OTHER-SHARER EVENTS:          0
cpu3->cpu3_L1I TOTAL        ACCESS:   81918129 HIT:   81918129 MISS:          0 MSHR_MERGE:          0
cpu3->cpu3_L1I LOAD         ACCESS:   81918129 HIT:   81918129 MISS:          0 MSHR_MERGE:          0
cpu3->cpu3_L1I RFO          ACCESS:          0 HIT:          0 MISS:          0 MSHR_MERGE:          0
cpu3->cpu3_L1I PREFETCH     ACCESS:          0 HIT:          0 MISS:          0 MSHR_MERGE:          0
cpu3->cpu3_L1I WRITE        ACCESS:          0 HIT:          0 MISS:          0 MSHR_MERGE:          0
cpu3->cpu3_L1I TRANSLATION  ACCESS:          0 HIT:          0 MISS:          0 MSHR_MERGE:          0
cpu3->cpu3_L1I PREFETCH REQUESTED:          0 ISSUED:          0 USEFUL:          0 USELESS:          0
cpu3->cpu3_L1I AVERAGE MISS LATENCY: - cycles
cpu3_L1I COHERENCE INVALIDATIONS:          0
cpu3_L1I COHERENCE WRITE-HIT OTHER-SHARER EVENTS:          0
cpu3_L1D COHERENCE INVALIDATIONS:          0
cpu3_L1D COHERENCE WRITE-HIT OTHER-SHARER EVENTS:          0
cpu3->cpu3_ITLB TOTAL        ACCESS:   68603606 HIT:   68603606 MISS:          0 MSHR_MERGE:          0
cpu3->cpu3_ITLB LOAD         ACCESS:   68603606 HIT:   68603606 MISS:          0 MSHR_MERGE:          0
cpu3->cpu3_ITLB RFO          ACCESS:          0 HIT:          0 MISS:          0 MSHR_MERGE:          0
cpu3->cpu3_ITLB PREFETCH     ACCESS:          0 HIT:          0 MISS:          0 MSHR_MERGE:          0
cpu3->cpu3_ITLB WRITE        ACCESS:          0 HIT:          0 MISS:          0 MSHR_MERGE:          0
cpu3->cpu3_ITLB TRANSLATION  ACCESS:          0 HIT:          0 MISS:          0 MSHR_MERGE:          0
cpu3->cpu3_ITLB PREFETCH REQUESTED:          0 ISSUED:          0 USEFUL:          0 USELESS:          0
cpu3->cpu3_ITLB AVERAGE MISS LATENCY: - cycles
cpu3_ITLB COHERENCE INVALIDATIONS:          0
cpu3_ITLB COHERENCE WRITE-HIT OTHER-SHARER EVENTS:          0
cpu3_DTLB COHERENCE INVALIDATIONS:          0
cpu3_DTLB COHERENCE WRITE-HIT OTHER-SHARER EVENTS:          0
cpu2_STLB COHERENCE INVALIDATIONS:          0
cpu2_STLB COHERENCE WRITE-HIT OTHER-SHARER EVENTS:          0
cpu2_L2C COHERENCE INVALIDATIONS:          0
cpu2_L2C COHERENCE WRITE-HIT OTHER-SHARER EVENTS:          0
cpu2->cpu2_L1I TOTAL        ACCESS:   82285746 HIT:   82285746 MISS:          0 MSHR_MERGE:          0
cpu2->cpu2_L1I LOAD         ACCESS:   82285746 HIT:   82285746 MISS:          0 MSHR_MERGE:          0
cpu2->cpu2_L1I RFO          ACCESS:          0 HIT:          0 MISS:          0 MSHR_MERGE:          0
cpu2->cpu2_L1I PREFETCH     ACCESS:          0 HIT:          0 MISS:          0 MSHR_MERGE:          0
cpu2->cpu2_L1I WRITE        ACCESS:          0 HIT:          0 MISS:          0 MSHR_MERGE:          0
cpu2->cpu2_L1I TRANSLATION  ACCESS:          0 HIT:          0 MISS:          0 MSHR_MERGE:          0
cpu2->cpu2_L1I PREFETCH REQUESTED:          0 ISSUED:          0 USEFUL:          0 USELESS:          0
cpu2->cpu2_L1I AVERAGE MISS LATENCY: - cycles
cpu2_L1I COHERENCE INVALIDATIONS:          0
cpu2_L1I COHERENCE WRITE-HIT OTHER-SHARER EVENTS:          0
cpu2_L1D COHERENCE INVALIDATIONS:          0
cpu2_L1D COHERENCE WRITE-HIT OTHER-SHARER EVENTS:          0
cpu2->cpu2_ITLB TOTAL        ACCESS:   68658354 HIT:   68658354 MISS:          0 MSHR_MERGE:          0
cpu2->cpu2_ITLB LOAD         ACCESS:   68658354 HIT:   68658354 MISS:          0 MSHR_MERGE:          0
cpu2->cpu2_ITLB RFO          ACCESS:          0 HIT:          0 MISS:          0 MSHR_MERGE:          0
cpu2->cpu2_ITLB PREFETCH     ACCESS:          0 HIT:          0 MISS:          0 MSHR_MERGE:          0
cpu2->cpu2_ITLB WRITE        ACCESS:          0 HIT:          0 MISS:          0 MSHR_MERGE:          0
cpu2->cpu2_ITLB TRANSLATION  ACCESS:          0 HIT:          0 MISS:          0 MSHR_MERGE:          0
cpu2->cpu2_ITLB PREFETCH REQUESTED:          0 ISSUED:          0 USEFUL:          0 USELESS:          0
cpu2->cpu2_ITLB AVERAGE MISS LATENCY: - cycles
cpu2_ITLB COHERENCE INVALIDATIONS:          0
cpu2_ITLB COHERENCE WRITE-HIT OTHER-SHARER EVENTS:          0
cpu2_DTLB COHERENCE INVALIDATIONS:          0
cpu2_DTLB COHERENCE WRITE-HIT OTHER-SHARER EVENTS:          0
cpu1->cpu1_STLB TOTAL        ACCESS:    1110255 HIT:    1012126 MISS:      98129 MSHR_MERGE:          0
cpu1->cpu1_STLB LOAD         ACCESS:    1110255 HIT:    1012126 MISS:      98129 MSHR_MERGE:          0
cpu1->cpu1_STLB RFO          ACCESS:          0 HIT:          0 MISS:          0 MSHR_MERGE:          0
cpu1->cpu1_STLB PREFETCH     ACCESS:          0 HIT:          0 MISS:          0 MSHR_MERGE:          0
cpu1->cpu1_STLB WRITE        ACCESS:          0 HIT:          0 MISS:          0 MSHR_MERGE:          0
cpu1->cpu1_STLB TRANSLATION  ACCESS:          0 HIT:          0 MISS:          0 MSHR_MERGE:          0
cpu1->cpu1_STLB PREFETCH REQUESTED:          0 ISSUED:          0 USEFUL:          0 USELESS:          0
cpu1->cpu1_STLB AVERAGE MISS LATENCY: 402.2 cycles
cpu1_STLB COHERENCE INVALIDATIONS:          0
cpu1_STLB COHERENCE WRITE-HIT OTHER-SHARER EVENTS:          0
cpu1->cpu1_L2C TOTAL        ACCESS:    1176464 HIT:     206815 MISS:     969649 MSHR_MERGE:          0
cpu1->cpu1_L2C LOAD         ACCESS:     982021 HIT:     206185 MISS:     775836 MSHR_MERGE:          0
cpu1->cpu1_L2C RFO          ACCESS:          0 HIT:          0 MISS:          0 MSHR_MERGE:          0
cpu1->cpu1_L2C PREFETCH     ACCESS:          0 HIT:          0 MISS:          0 MSHR_MERGE:          0
cpu1->cpu1_L2C WRITE        ACCESS:          0 HIT:          0 MISS:          0 MSHR_MERGE:          0
cpu1->cpu1_L2C TRANSLATION  ACCESS:     194443 HIT:        630 MISS:     193813 MSHR_MERGE:          0
cpu1->cpu1_L2C PREFETCH REQUESTED:          0 ISSUED:          0 USEFUL:          0 USELESS:          0
cpu1->cpu1_L2C AVERAGE MISS LATENCY: 184.2 cycles
cpu1_L2C COHERENCE INVALIDATIONS:          0
cpu1_L2C COHERENCE WRITE-HIT OTHER-SHARER EVENTS:          0
cpu1->cpu1_L1I TOTAL        ACCESS:   16598460 HIT:   15539755 MISS:    1058705 MSHR_MERGE:      76684
cpu1->cpu1_L1I LOAD         ACCESS:   16598460 HIT:   15539755 MISS:    1058705 MSHR_MERGE:      76684
cpu1->cpu1_L1I RFO          ACCESS:          0 HIT:          0 MISS:          0 MSHR_MERGE:          0
cpu1->cpu1_L1I PREFETCH     ACCESS:          0 HIT:          0 MISS:          0 MSHR_MERGE:          0
cpu1->cpu1_L1I WRITE        ACCESS:          0 HIT:          0 MISS:          0 MSHR_MERGE:          0
cpu1->cpu1_L1I TRANSLATION  ACCESS:          0 HIT:          0 MISS:          0 MSHR_MERGE:          0
cpu1->cpu1_L1I PREFETCH REQUESTED:          0 ISSUED:          0 USEFUL:          0 USELESS:          0
cpu1->cpu1_L1I AVERAGE MISS LATENCY: 152.2 cycles
cpu1_L1I COHERENCE INVALIDATIONS:          0
cpu1_L1I COHERENCE WRITE-HIT OTHER-SHARER EVENTS:          0
cpu1->cpu1_L1D TOTAL        ACCESS:     196324 HIT:       1881 MISS:     194443 MSHR_MERGE:          0
cpu1->cpu1_L1D LOAD         ACCESS:          0 HIT:          0 MISS:          0 MSHR_MERGE:          0
cpu1->cpu1_L1D RFO          ACCESS:          0 HIT:          0 MISS:          0 MSHR_MERGE:          0
cpu1->cpu1_L1D PREFETCH     ACCESS:          0 HIT:          0 MISS:          0 MSHR_MERGE:          0
cpu1->cpu1_L1D WRITE        ACCESS:          0 HIT:          0 MISS:          0 MSHR_MERGE:          0
cpu1->cpu1_L1D TRANSLATION  ACCESS:     196324 HIT:       1881 MISS:     194443 MSHR_MERGE:          0
cpu1->cpu1_L1D PREFETCH REQUESTED:          0 ISSUED:          0 USEFUL:          0 USELESS:          0
cpu1->cpu1_L1D AVERAGE MISS LATENCY: 196.9 cycles
cpu1_L1D COHERENCE INVALIDATIONS:          0
cpu1_L1D COHERENCE WRITE-HIT OTHER-SHARER EVENTS:          0
cpu1->cpu1_ITLB TOTAL        ACCESS:   16334095 HIT:   15198447 MISS:    1135648 MSHR_MERGE:      25393
cpu1->cpu1_ITLB LOAD         ACCESS:   16334095 HIT:   15198447 MISS:    1135648 MSHR_MERGE:      25393
cpu1->cpu1_ITLB RFO          ACCESS:          0 HIT:          0 MISS:          0 MSHR_MERGE:          0
cpu1->cpu1_ITLB PREFETCH     ACCESS:          0 HIT:          0 MISS:          0 MSHR_MERGE:          0
cpu1->cpu1_ITLB WRITE        ACCESS:          0 HIT:          0 MISS:          0 MSHR_MERGE:          0
cpu1->cpu1_ITLB TRANSLATION  ACCESS:          0 HIT:          0 MISS:          0 MSHR_MERGE:          0
cpu1->cpu1_ITLB PREFETCH REQUESTED:          0 ISSUED:          0 USEFUL:          0 USELESS:          0
cpu1->cpu1_ITLB AVERAGE MISS LATENCY: 39.64 cycles
cpu1_ITLB COHERENCE INVALIDATIONS:          0
cpu1_ITLB COHERENCE WRITE-HIT OTHER-SHARER EVENTS:          0
cpu1_DTLB COHERENCE INVALIDATIONS:          0
cpu1_DTLB COHERENCE WRITE-HIT OTHER-SHARER EVENTS:          0
cpu0->cpu0_STLB TOTAL        ACCESS:     140785 HIT:     140785 MISS:          0 MSHR_MERGE:          0
cpu0->cpu0_STLB LOAD         ACCESS:     140785 HIT:     140785 MISS:          0 MSHR_MERGE:          0
cpu0->cpu0_STLB RFO          ACCESS:          0 HIT:          0 MISS:          0 MSHR_MERGE:          0
cpu0->cpu0_STLB PREFETCH     ACCESS:          0 HIT:          0 MISS:          0 MSHR_MERGE:          0
cpu0->cpu0_STLB WRITE        ACCESS:          0 HIT:          0 MISS:          0 MSHR_MERGE:          0
cpu0->cpu0_STLB TRANSLATION  ACCESS:          0 HIT:          0 MISS:          0 MSHR_MERGE:          0
cpu0->cpu0_STLB PREFETCH REQUESTED:          0 ISSUED:          0 USEFUL:          0 USELESS:          0
cpu0->cpu0_STLB AVERAGE MISS LATENCY: - cycles
cpu0_STLB COHERENCE INVALIDATIONS:          0
cpu0_STLB COHERENCE WRITE-HIT OTHER-SHARER EVENTS:          0
cpu0->cpu0_L2C TOTAL        ACCESS:    4498086 HIT:    2177842 MISS:    2320244 MSHR_MERGE:          0
cpu0->cpu0_L2C LOAD         ACCESS:     711550 HIT:     236764 MISS:     474786 MSHR_MERGE:          0
cpu0->cpu0_L2C RFO          ACCESS:    1878891 HIT:      33508 MISS:    1845383 MSHR_MERGE:          0
cpu0->cpu0_L2C PREFETCH     ACCESS:          0 HIT:          0 MISS:          0 MSHR_MERGE:          0
cpu0->cpu0_L2C WRITE        ACCESS:    1907645 HIT:    1907570 MISS:         75 MSHR_MERGE:          0
cpu0->cpu0_L2C TRANSLATION  ACCESS:          0 HIT:          0 MISS:          0 MSHR_MERGE:          0
cpu0->cpu0_L2C PREFETCH REQUESTED:          0 ISSUED:          0 USEFUL:          0 USELESS:          0
cpu0->cpu0_L2C AVERAGE MISS LATENCY: 103.3 cycles
cpu0_L2C COHERENCE INVALIDATIONS:          0
cpu0_L2C COHERENCE WRITE-HIT OTHER-SHARER EVENTS:          0
cpu0->cpu0_L1I TOTAL        ACCESS:   58061951 HIT:   57923674 MISS:     138277 MSHR_MERGE:      36461
cpu0->cpu0_L1I LOAD         ACCESS:   58061951 HIT:   57923674 MISS:     138277 MSHR_MERGE:      36461
cpu0->cpu0_L1I RFO          ACCESS:          0 HIT:          0 MISS:          0 MSHR_MERGE:          0
cpu0->cpu0_L1I PREFETCH     ACCESS:          0 HIT:          0 MISS:          0 MSHR_MERGE:          0
cpu0->cpu0_L1I WRITE        ACCESS:          0 HIT:          0 MISS:          0 MSHR_MERGE:          0
cpu0->cpu0_L1I TRANSLATION  ACCESS:          0 HIT:          0 MISS:          0 MSHR_MERGE:          0
cpu0->cpu0_L1I PREFETCH REQUESTED:          0 ISSUED:          0 USEFUL:          0 USELESS:          0
cpu0->cpu0_L1I AVERAGE MISS LATENCY: 34.17 cycles
cpu0_L1I COHERENCE INVALIDATIONS:          0
cpu0_L1I COHERENCE WRITE-HIT OTHER-SHARER EVENTS:          0
cpu0->cpu0_L1D TOTAL        ACCESS:   75059685 HIT:   64828909 MISS:   10230776 MSHR_MERGE:    7740031
cpu0->cpu0_L1D LOAD         ACCESS:    7103854 HIT:    6163340 MISS:     940514 MSHR_MERGE:     330780
cpu0->cpu0_L1D RFO          ACCESS:          0 HIT:          0 MISS:          0 MSHR_MERGE:          0
cpu0->cpu0_L1D PREFETCH     ACCESS:          0 HIT:          0 MISS:          0 MSHR_MERGE:          0
cpu0->cpu0_L1D WRITE        ACCESS:   67955831 HIT:   58665569 MISS:    9290262 MSHR_MERGE:    7409251
cpu0->cpu0_L1D TRANSLATION  ACCESS:          0 HIT:          0 MISS:          0 MSHR_MERGE:          0
cpu0->cpu0_L1D PREFETCH REQUESTED:          0 ISSUED:          0 USEFUL:          0 USELESS:          0
cpu0->cpu0_L1D AVERAGE MISS LATENCY: 103.1 cycles
cpu0_L1D COHERENCE INVALIDATIONS:          0
cpu0_L1D COHERENCE WRITE-HIT OTHER-SHARER EVENTS:          0
cpu0->cpu0_ITLB TOTAL        ACCESS:   49994251 HIT:   49973776 MISS:      20475 MSHR_MERGE:       7649
cpu0->cpu0_ITLB LOAD         ACCESS:   49994251 HIT:   49973776 MISS:      20475 MSHR_MERGE:       7649
cpu0->cpu0_ITLB RFO          ACCESS:          0 HIT:          0 MISS:          0 MSHR_MERGE:          0
cpu0->cpu0_ITLB PREFETCH     ACCESS:          0 HIT:          0 MISS:          0 MSHR_MERGE:          0
cpu0->cpu0_ITLB WRITE        ACCESS:          0 HIT:          0 MISS:          0 MSHR_MERGE:          0
cpu0->cpu0_ITLB TRANSLATION  ACCESS:          0 HIT:          0 MISS:          0 MSHR_MERGE:          0
cpu0->cpu0_ITLB PREFETCH REQUESTED:          0 ISSUED:          0 USEFUL:          0 USELESS:          0
cpu0->cpu0_ITLB AVERAGE MISS LATENCY: 3.959 cycles
cpu0_ITLB COHERENCE INVALIDATIONS:          0
cpu0_ITLB COHERENCE WRITE-HIT OTHER-SHARER EVENTS:          0
cpu0->cpu0_DTLB TOTAL        ACCESS:   62436388 HIT:   62273520 MISS:     162868 MSHR_MERGE:      34909
cpu0->cpu0_DTLB LOAD         ACCESS:   62436388 HIT:   62273520 MISS:     162868 MSHR_MERGE:      34909
cpu0->cpu0_DTLB RFO          ACCESS:          0 HIT:          0 MISS:          0 MSHR_MERGE:          0
cpu0->cpu0_DTLB PREFETCH     ACCESS:          0 HIT:          0 MISS:          0 MSHR_MERGE:          0
cpu0->cpu0_DTLB WRITE        ACCESS:          0 HIT:          0 MISS:          0 MSHR_MERGE:          0
cpu0->cpu0_DTLB TRANSLATION  ACCESS:          0 HIT:          0 MISS:          0 MSHR_MERGE:          0
cpu0->cpu0_DTLB PREFETCH REQUESTED:          0 ISSUED:          0 USEFUL:          0 USELESS:          0
cpu0->cpu0_DTLB AVERAGE MISS LATENCY: 4 cycles
cpu0_DTLB COHERENCE INVALIDATIONS:          0
cpu0_DTLB COHERENCE WRITE-HIT OTHER-SHARER EVENTS:          0
cpu0->LLC TOTAL        ACCESS:    4186692 HIT:    2469241 MISS:    1717451 MSHR_MERGE:          1
cpu0->LLC LOAD         ACCESS:     474786 HIT:     393094 MISS:      81692 MSHR_MERGE:          0
cpu0->LLC RFO          ACCESS:    1845383 HIT:    1028197 MISS:     817186 MSHR_MERGE:          1
cpu0->LLC PREFETCH     ACCESS:          0 HIT:          0 MISS:          0 MSHR_MERGE:          0
cpu0->LLC WRITE        ACCESS:    1866523 HIT:    1047950 MISS:     818573 MSHR_MERGE:          0
cpu0->LLC TRANSLATION  ACCESS:          0 HIT:          0 MISS:          0 MSHR_MERGE:          0
cpu0->LLC PREFETCH REQUESTED:          0 ISSUED:          0 USEFUL:          0 USELESS:          0
cpu0->LLC AVERAGE MISS LATENCY: 218.1 cycles
cpu1->LLC TOTAL        ACCESS:     969649 HIT:     275596 MISS:     694053 MSHR_MERGE:          0
cpu1->LLC LOAD         ACCESS:     775836 HIT:     225496 MISS:     550340 MSHR_MERGE:          0
cpu1->LLC RFO          ACCESS:          0 HIT:          0 MISS:          0 MSHR_MERGE:          0
cpu1->LLC PREFETCH     ACCESS:          0 HIT:          0 MISS:          0 MSHR_MERGE:          0
cpu1->LLC WRITE        ACCESS:          0 HIT:          0 MISS:          0 MSHR_MERGE:          0
cpu1->LLC TRANSLATION  ACCESS:     193813 HIT:      50100 MISS:     143713 MSHR_MERGE:          0
cpu1->LLC PREFETCH REQUESTED:          0 ISSUED:          0 USEFUL:          0 USELESS:          0
cpu1->LLC AVERAGE MISS LATENCY: 539.8 cycles
LLC COHERENCE INVALIDATIONS:      47256
LLC COHERENCE WRITE-HIT OTHER-SHARER EVENTS:      47256

DRAM Statistics

Channel 0 RQ ROW_BUFFER_HIT:      70448
  ROW_BUFFER_MISS:    1522416
  AVG DBUS CONGESTED CYCLE: 7.673
Channel 0 WQ ROW_BUFFER_HIT:     190427
  ROW_BUFFER_MISS:     627835
  FULL:      21025
Channel 0 REFRESHES ISSUED:      11931

VMEM ALIASED FILLS (cross-CPU shared-page hits): 12914
