[VMEM] WARNING: physical memory size is smaller than virtual memory size.

*** ChampSim Multicore Out-of-Order Simulator ***
Warmup Instructions: 50000000
Simulation Instructions: 100000000
Number of CPUs: 4
Page size: 4096

Off-chip DRAM Size: 16 GiB Channels: 1 Width: 64-bit Data Rate: 3205 MT/s
Heartbeat CPU 3 instructions: 10000003 cycles: 2511789 heartbeat IPC: 3.981 cumulative IPC: 3.981 (Simulation time: 00 hr 05 min 14 sec)
Heartbeat CPU 2 instructions: 10000003 cycles: 2512822 heartbeat IPC: 3.98 cumulative IPC: 3.98 (Simulation time: 00 hr 05 min 14 sec)
Heartbeat CPU 1 instructions: 10000001 cycles: 4700588 heartbeat IPC: 2.127 cumulative IPC: 2.127 (Simulation time: 00 hr 09 min 38 sec)
Heartbeat CPU 3 instructions: 20000004 cycles: 5012011 heartbeat IPC: 4 cumulative IPC: 3.99 (Simulation time: 00 hr 10 min 16 sec)
Heartbeat CPU 2 instructions: 20000003 cycles: 5013662 heartbeat IPC: 3.999 cumulative IPC: 3.989 (Simulation time: 00 hr 10 min 16 sec)
Heartbeat CPU 3 instructions: 30000004 cycles: 7512011 heartbeat IPC: 4 cumulative IPC: 3.994 (Simulation time: 00 hr 15 min 14 sec)
Heartbeat CPU 2 instructions: 30000003 cycles: 7513662 heartbeat IPC: 4 cumulative IPC: 3.993 (Simulation time: 00 hr 15 min 14 sec)
Heartbeat CPU 1 instructions: 20000001 cycles: 9276617 heartbeat IPC: 2.185 cumulative IPC: 2.156 (Simulation time: 00 hr 18 min 51 sec)
Heartbeat CPU 3 instructions: 40000004 cycles: 10012011 heartbeat IPC: 4 cumulative IPC: 3.995 (Simulation time: 00 hr 20 min 24 sec)
Heartbeat CPU 2 instructions: 40000003 cycles: 10013662 heartbeat IPC: 4 cumulative IPC: 3.995 (Simulation time: 00 hr 20 min 24 sec)
*** Reached end of trace: (2, "traces/ocean_8t/ocean2.champsimtrace")
*** Reached end of trace: (3, "traces/ocean_8t/ocean3.champsimtrace")
Warmup finished CPU 3 instructions: 50000000 cycles: 12514013 cumulative IPC: 3.996 (Simulation time: 00 hr 25 min 35 sec)
Heartbeat CPU 3 instructions: 50000004 cycles: 12514014 heartbeat IPC: 3.997 cumulative IPC: 3.996 (Simulation time: 00 hr 25 min 35 sec)
Warmup finished CPU 2 instructions: 50000002 cycles: 12516467 cumulative IPC: 3.995 (Simulation time: 00 hr 25 min 35 sec)
Heartbeat CPU 2 instructions: 50000006 cycles: 12516468 heartbeat IPC: 3.996 cumulative IPC: 3.995 (Simulation time: 00 hr 25 min 35 sec)
Heartbeat CPU 1 instructions: 30000002 cycles: 14627779 heartbeat IPC: 1.869 cumulative IPC: 2.051 (Simulation time: 00 hr 29 min 56 sec)
Heartbeat CPU 3 instructions: 60000004 cycles: 15014014 heartbeat IPC: 4 cumulative IPC: 3.996 (Simulation time: 00 hr 30 min 42 sec)
Heartbeat CPU 2 instructions: 60000006 cycles: 15016468 heartbeat IPC: 4 cumulative IPC: 3.996 (Simulation time: 00 hr 30 min 42 sec)
Heartbeat CPU 3 instructions: 70000004 cycles: 17514014 heartbeat IPC: 4 cumulative IPC: 3.997 (Simulation time: 00 hr 35 min 44 sec)
Heartbeat CPU 2 instructions: 70000006 cycles: 17516468 heartbeat IPC: 4 cumulative IPC: 3.996 (Simulation time: 00 hr 35 min 44 sec)
Heartbeat CPU 1 instructions: 40000004 cycles: 18874246 heartbeat IPC: 2.355 cumulative IPC: 2.119 (Simulation time: 00 hr 38 min 26 sec)
Heartbeat CPU 3 instructions: 80000004 cycles: 20014014 heartbeat IPC: 4 cumulative IPC: 3.997 (Simulation time: 00 hr 40 min 46 sec)
Heartbeat CPU 2 instructions: 80000006 cycles: 20016468 heartbeat IPC: 4 cumulative IPC: 3.997 (Simulation time: 00 hr 40 min 47 sec)
*** Reached end of trace: (1, "traces/ocean_8t/ocean1.champsimtrace")
Heartbeat CPU 0 instructions: 10000000 cycles: 20886341 heartbeat IPC: 0.4788 cumulative IPC: 0.4788 (Simulation time: 00 hr 42 min 30 sec)
Heartbeat CPU 3 instructions: 90000004 cycles: 22514014 heartbeat IPC: 4 cumulative IPC: 3.998 (Simulation time: 00 hr 45 min 53 sec)
Heartbeat CPU 2 instructions: 90000006 cycles: 22516468 heartbeat IPC: 4 cumulative IPC: 3.997 (Simulation time: 00 hr 45 min 54 sec)
*** Reached end of trace: (2, "traces/ocean_8t/ocean2.champsimtrace")
*** Reached end of trace: (3, "traces/ocean_8t/ocean3.champsimtrace")
Warmup finished CPU 1 instructions: 50000002 cycles: 22753722 cumulative IPC: 2.197 (Simulation time: 00 hr 46 min 20 sec)
Heartbeat CPU 1 instructions: 50000006 cycles: 22753723 heartbeat IPC: 2.578 cumulative IPC: 2.197 (Simulation time: 00 hr 46 min 20 sec)
Heartbeat CPU 3 instructions: 100000004 cycles: 25014014 heartbeat IPC: 4 cumulative IPC: 3.998 (Simulation time: 00 hr 50 min 55 sec)
Heartbeat CPU 2 instructions: 100000006 cycles: 25016468 heartbeat IPC: 4 cumulative IPC: 3.997 (Simulation time: 00 hr 50 min 55 sec)
Heartbeat CPU 1 instructions: 60000009 cycles: 26858411 heartbeat IPC: 2.436 cumulative IPC: 2.234 (Simulation time: 00 hr 54 min 45 sec)
Heartbeat CPU 3 instructions: 110000004 cycles: 27514014 heartbeat IPC: 4 cumulative IPC: 3.998 (Simulation time: 00 hr 56 min 04 sec)
Heartbeat CPU 2 instructions: 110000006 cycles: 27516468 heartbeat IPC: 4 cumulative IPC: 3.998 (Simulation time: 00 hr 56 min 04 sec)
Heartbeat CPU 3 instructions: 120000004 cycles: 30014014 heartbeat IPC: 4 cumulative IPC: 3.998 (Simulation time: 01 hr 01 min 11 sec)
Heartbeat CPU 2 instructions: 120000006 cycles: 30016468 heartbeat IPC: 4 cumulative IPC: 3.998 (Simulation time: 01 hr 01 min 11 sec)
Heartbeat CPU 1 instructions: 70000009 cycles: 31036886 heartbeat IPC: 2.393 cumulative IPC: 2.255 (Simulation time: 01 hr 03 min 16 sec)
Heartbeat CPU 3 instructions: 130000004 cycles: 32514014 heartbeat IPC: 4 cumulative IPC: 3.998 (Simulation time: 01 hr 06 min 14 sec)
Heartbeat CPU 2 instructions: 130000006 cycles: 32516468 heartbeat IPC: 4 cumulative IPC: 3.998 (Simulation time: 01 hr 06 min 14 sec)
*** Reached end of trace: (2, "traces/ocean_8t/ocean2.champsimtrace")
*** Reached end of trace: (3, "traces/ocean_8t/ocean3.champsimtrace")
Heartbeat CPU 3 instructions: 140000004 cycles: 35014014 heartbeat IPC: 4 cumulative IPC: 3.998 (Simulation time: 01 hr 11 min 16 sec)
Heartbeat CPU 2 instructions: 140000006 cycles: 35016468 heartbeat IPC: 4 cumulative IPC: 3.998 (Simulation time: 01 hr 11 min 17 sec)
Heartbeat CPU 1 instructions: 80000009 cycles: 36601016 heartbeat IPC: 1.797 cumulative IPC: 2.186 (Simulation time: 01 hr 14 min 28 sec)
Heartbeat CPU 3 instructions: 150000004 cycles: 37514014 heartbeat IPC: 4 cumulative IPC: 3.999 (Simulation time: 01 hr 16 min 17 sec)
Heartbeat CPU 2 instructions: 150000006 cycles: 37516468 heartbeat IPC: 4 cumulative IPC: 3.998 (Simulation time: 01 hr 16 min 18 sec)
Heartbeat CPU 3 instructions: 160000004 cycles: 40014014 heartbeat IPC: 4 cumulative IPC: 3.999 (Simulation time: 01 hr 21 min 27 sec)
Heartbeat CPU 2 instructions: 160000006 cycles: 40016468 heartbeat IPC: 4 cumulative IPC: 3.998 (Simulation time: 01 hr 21 min 27 sec)
Heartbeat CPU 1 instructions: 90000011 cycles: 40035677 heartbeat IPC: 2.911 cumulative IPC: 2.248 (Simulation time: 01 hr 21 min 29 sec)
*** Reached end of trace: (1, "traces/ocean_8t/ocean1.champsimtrace")
Heartbeat CPU 0 instructions: 20000000 cycles: 42199160 heartbeat IPC: 0.4692 cumulative IPC: 0.4739 (Simulation time: 01 hr 25 min 54 sec)
Heartbeat CPU 3 instructions: 170000004 cycles: 42514014 heartbeat IPC: 4 cumulative IPC: 3.999 (Simulation time: 01 hr 26 min 34 sec)
Heartbeat CPU 2 instructions: 170000006 cycles: 42516468 heartbeat IPC: 4 cumulative IPC: 3.998 (Simulation time: 01 hr 26 min 35 sec)
Heartbeat CPU 1 instructions: 100000013 cycles: 44129706 heartbeat IPC: 2.443 cumulative IPC: 2.266 (Simulation time: 01 hr 29 min 52 sec)
Heartbeat CPU 3 instructions: 180000004 cycles: 45014014 heartbeat IPC: 4 cumulative IPC: 3.999 (Simulation time: 01 hr 31 min 39 sec)
Heartbeat CPU 2 instructions: 180000006 cycles: 45016468 heartbeat IPC: 4 cumulative IPC: 3.999 (Simulation time: 01 hr 31 min 39 sec)
*** Reached end of trace: (2, "traces/ocean_8t/ocean2.champsimtrace")
*** Reached end of trace: (3, "traces/ocean_8t/ocean3.champsimtrace")
Heartbeat CPU 3 instructions: 190000004 cycles: 47514014 heartbeat IPC: 4 cumulative IPC: 3.999 (Simulation time: 01 hr 36 min 34 sec)
Heartbeat CPU 2 instructions: 190000006 cycles: 47516468 heartbeat IPC: 4 cumulative IPC: 3.999 (Simulation time: 01 hr 36 min 35 sec)
Heartbeat CPU 1 instructions: 110000014 cycles: 48239821 heartbeat IPC: 2.433 cumulative IPC: 2.28 (Simulation time: 01 hr 38 min 02 sec)
Heartbeat CPU 3 instructions: 200000004 cycles: 50014014 heartbeat IPC: 4 cumulative IPC: 3.999 (Simulation time: 01 hr 41 min 50 sec)
Heartbeat CPU 2 instructions: 200000006 cycles: 50016468 heartbeat IPC: 4 cumulative IPC: 3.999 (Simulation time: 01 hr 41 min 50 sec)
Heartbeat CPU 3 instructions: 210000004 cycles: 52514014 heartbeat IPC: 4 cumulative IPC: 3.999 (Simulation time: 01 hr 46 min 56 sec)
Heartbeat CPU 2 instructions: 210000006 cycles: 52516468 heartbeat IPC: 4 cumulative IPC: 3.999 (Simulation time: 01 hr 46 min 56 sec)
Heartbeat CPU 1 instructions: 120000014 cycles: 53177005 heartbeat IPC: 2.025 cumulative IPC: 2.257 (Simulation time: 01 hr 48 min 12 sec)
Heartbeat CPU 3 instructions: 220000004 cycles: 55014014 heartbeat IPC: 4 cumulative IPC: 3.999 (Simulation time: 01 hr 51 min 44 sec)
Heartbeat CPU 2 instructions: 220000006 cycles: 55016468 heartbeat IPC: 4 cumulative IPC: 3.999 (Simulation time: 01 hr 51 min 44 sec)
*** Reached end of trace: (2, "traces/ocean_8t/ocean2.champsimtrace")
*** Reached end of trace: (3, "traces/ocean_8t/ocean3.champsimtrace")
Heartbeat CPU 3 instructions: 230000004 cycles: 57514014 heartbeat IPC: 4 cumulative IPC: 3.999 (Simulation time: 01 hr 56 min 40 sec)
Heartbeat CPU 2 instructions: 230000006 cycles: 57516468 heartbeat IPC: 4 cumulative IPC: 3.999 (Simulation time: 01 hr 56 min 40 sec)
Heartbeat CPU 1 instructions: 130000015 cycles: 57669335 heartbeat IPC: 2.226 cumulative IPC: 2.254 (Simulation time: 01 hr 56 min 58 sec)
*** Reached end of trace: (1, "traces/ocean_8t/ocean1.champsimtrace")
Heartbeat CPU 3 instructions: 240000004 cycles: 60014014 heartbeat IPC: 4 cumulative IPC: 3.999 (Simulation time: 02 hr 01 min 24 sec)
Heartbeat CPU 2 instructions: 240000006 cycles: 60016468 heartbeat IPC: 4 cumulative IPC: 3.999 (Simulation time: 02 hr 01 min 24 sec)
Heartbeat CPU 1 instructions: 140000015 cycles: 61405344 heartbeat IPC: 2.677 cumulative IPC: 2.28 (Simulation time: 02 hr 04 min 05 sec)
Heartbeat CPU 0 instructions: 30000000 cycles: 62318173 heartbeat IPC: 0.497 cumulative IPC: 0.4814 (Simulation time: 02 hr 05 min 50 sec)
Heartbeat CPU 3 instructions: 250000004 cycles: 62514014 heartbeat IPC: 4 cumulative IPC: 3.999 (Simulation time: 02 hr 06 min 13 sec)
Heartbeat CPU 2 instructions: 250000006 cycles: 62516468 heartbeat IPC: 4 cumulative IPC: 3.999 (Simulation time: 02 hr 06 min 13 sec)
Heartbeat CPU 3 instructions: 260000004 cycles: 65014014 heartbeat IPC: 4 cumulative IPC: 3.999 (Simulation time: 02 hr 10 min 59 sec)
Heartbeat CPU 2 instructions: 260000006 cycles: 65016468 heartbeat IPC: 4 cumulative IPC: 3.999 (Simulation time: 02 hr 11 min 00 sec)
Heartbeat CPU 1 instructions: 150000015 cycles: 65610429 heartbeat IPC: 2.378 cumulative IPC: 2.286 (Simulation time: 02 hr 12 min 08 sec)
Heartbeat CPU 3 instructions: 270000004 cycles: 67514014 heartbeat IPC: 4 cumulative IPC: 3.999 (Simulation time: 02 hr 15 min 48 sec)
Heartbeat CPU 2 instructions: 270000006 cycles: 67516468 heartbeat IPC: 4 cumulative IPC: 3.999 (Simulation time: 02 hr 15 min 49 sec)
*** Reached end of trace: (2, "traces/ocean_8t/ocean2.champsimtrace")
*** Reached end of trace: (3, "traces/ocean_8t/ocean3.champsimtrace")
Heartbeat CPU 1 instructions: 160000018 cycles: 69743169 heartbeat IPC: 2.42 cumulative IPC: 2.294 (Simulation time: 02 hr 20 min 04 sec)
Heartbeat CPU 3 instructions: 280000004 cycles: 70014014 heartbeat IPC: 4 cumulative IPC: 3.999 (Simulation time: 02 hr 20 min 36 sec)
Heartbeat CPU 2 instructions: 280000006 cycles: 70016468 heartbeat IPC: 4 cumulative IPC: 3.999 (Simulation time: 02 hr 20 min 36 sec)
Heartbeat CPU 3 instructions: 290000004 cycles: 72514014 heartbeat IPC: 4 cumulative IPC: 3.999 (Simulation time: 02 hr 25 min 17 sec)
Heartbeat CPU 2 instructions: 290000006 cycles: 72516468 heartbeat IPC: 4 cumulative IPC: 3.999 (Simulation time: 02 hr 25 min 17 sec)
Heartbeat CPU 3 instructions: 300000004 cycles: 75014014 heartbeat IPC: 4 cumulative IPC: 3.999 (Simulation time: 02 hr 29 min 58 sec)
Heartbeat CPU 2 instructions: 300000006 cycles: 75016468 heartbeat IPC: 4 cumulative IPC: 3.999 (Simulation time: 02 hr 29 min 58 sec)
Heartbeat CPU 1 instructions: 170000018 cycles: 75323433 heartbeat IPC: 1.792 cumulative IPC: 2.257 (Simulation time: 02 hr 30 min 34 sec)
Heartbeat CPU 3 instructions: 310000004 cycles: 77514014 heartbeat IPC: 4 cumulative IPC: 3.999 (Simulation time: 02 hr 34 min 47 sec)
Heartbeat CPU 2 instructions: 310000006 cycles: 77516468 heartbeat IPC: 4 cumulative IPC: 3.999 (Simulation time: 02 hr 34 min 47 sec)
Heartbeat CPU 1 instructions: 180000021 cycles: 78875454 heartbeat IPC: 2.815 cumulative IPC: 2.282 (Simulation time: 02 hr 37 min 23 sec)
*** Reached end of trace: (2, "traces/ocean_8t/ocean2.champsimtrace")
*** Reached end of trace: (3, "traces/ocean_8t/ocean3.champsimtrace")
*** Reached end of trace: (1, "traces/ocean_8t/ocean1.champsimtrace")
Heartbeat CPU 3 instructions: 320000004 cycles: 80014014 heartbeat IPC: 4 cumulative IPC: 3.999 (Simulation time: 02 hr 39 min 35 sec)
Heartbeat CPU 2 instructions: 320000006 cycles: 80016468 heartbeat IPC: 4 cumulative IPC: 3.999 (Simulation time: 02 hr 39 min 36 sec)
Heartbeat CPU 3 instructions: 330000004 cycles: 82514014 heartbeat IPC: 4 cumulative IPC: 3.999 (Simulation time: 02 hr 44 min 20 sec)
Heartbeat CPU 2 instructions: 330000006 cycles: 82516468 heartbeat IPC: 4 cumulative IPC: 3.999 (Simulation time: 02 hr 44 min 21 sec)
Heartbeat CPU 1 instructions: 190000024 cycles: 82887805 heartbeat IPC: 2.492 cumulative IPC: 2.292 (Simulation time: 02 hr 45 min 04 sec)
Heartbeat CPU 0 instructions: 40000000 cycles: 84777903 heartbeat IPC: 0.4452 cumulative IPC: 0.4718 (Simulation time: 02 hr 48 min 36 sec)
Heartbeat CPU 3 instructions: 340000004 cycles: 85014014 heartbeat IPC: 4 cumulative IPC: 3.999 (Simulation time: 02 hr 49 min 03 sec)
Heartbeat CPU 2 instructions: 340000006 cycles: 85016468 heartbeat IPC: 4 cumulative IPC: 3.999 (Simulation time: 02 hr 49 min 03 sec)
Heartbeat CPU 1 instructions: 200000024 cycles: 86983283 heartbeat IPC: 2.442 cumulative IPC: 2.299 (Simulation time: 02 hr 52 min 49 sec)
Heartbeat CPU 3 instructions: 350000004 cycles: 87514014 heartbeat IPC: 4 cumulative IPC: 3.999 (Simulation time: 02 hr 53 min 51 sec)
Heartbeat CPU 2 instructions: 350000006 cycles: 87516468 heartbeat IPC: 4 cumulative IPC: 3.999 (Simulation time: 02 hr 53 min 51 sec)
Heartbeat CPU 3 instructions: 360000004 cycles: 90014014 heartbeat IPC: 4 cumulative IPC: 3.999 (Simulation time: 02 hr 58 min 41 sec)
Heartbeat CPU 2 instructions: 360000006 cycles: 90016468 heartbeat IPC: 4 cumulative IPC: 3.999 (Simulation time: 02 hr 58 min 41 sec)
*** Reached end of trace: (2, "traces/ocean_8t/ocean2.champsimtrace")
*** Reached end of trace: (3, "traces/ocean_8t/ocean3.champsimtrace")
Heartbeat CPU 1 instructions: 210000026 cycles: 91739881 heartbeat IPC: 2.102 cumulative IPC: 2.289 (Simulation time: 03 hr 01 min 59 sec)
Heartbeat CPU 3 instructions: 370000004 cycles: 92514014 heartbeat IPC: 4 cumulative IPC: 3.999 (Simulation time: 03 hr 03 min 28 sec)
Heartbeat CPU 2 instructions: 370000006 cycles: 92516468 heartbeat IPC: 4 cumulative IPC: 3.999 (Simulation time: 03 hr 03 min 29 sec)
Heartbeat CPU 3 instructions: 380000004 cycles: 95014014 heartbeat IPC: 4 cumulative IPC: 3.999 (Simulation time: 03 hr 08 min 15 sec)
Heartbeat CPU 2 instructions: 380000006 cycles: 95016468 heartbeat IPC: 4 cumulative IPC: 3.999 (Simulation time: 03 hr 08 min 15 sec)
Heartbeat CPU 1 instructions: 220000026 cycles: 96461787 heartbeat IPC: 2.118 cumulative IPC: 2.281 (Simulation time: 03 hr 11 min 05 sec)
Heartbeat CPU 3 instructions: 390000004 cycles: 97514014 heartbeat IPC: 4 cumulative IPC: 3.999 (Simulation time: 03 hr 13 min 08 sec)
Heartbeat CPU 2 instructions: 390000006 cycles: 97516468 heartbeat IPC: 4 cumulative IPC: 3.999 (Simulation time: 03 hr 13 min 08 sec)
*** Reached end of trace: (0, "traces/ocean_8t/ocean0.champsimtrace")
*** Reached end of trace: (1, "traces/ocean_8t/ocean1.champsimtrace")
Heartbeat CPU 3 instructions: 400000004 cycles: 100014014 heartbeat IPC: 4 cumulative IPC: 3.999 (Simulation time: 03 hr 18 min 06 sec)
Heartbeat CPU 2 instructions: 400000006 cycles: 100016468 heartbeat IPC: 4 cumulative IPC: 3.999 (Simulation time: 03 hr 18 min 06 sec)
Heartbeat CPU 1 instructions: 230000028 cycles: 100178500 heartbeat IPC: 2.691 cumulative IPC: 2.296 (Simulation time: 03 hr 18 min 26 sec)
*** Reached end of trace: (2, "traces/ocean_8t/ocean2.champsimtrace")
*** Reached end of trace: (3, "traces/ocean_8t/ocean3.champsimtrace")
Heartbeat CPU 3 instructions: 410000004 cycles: 102514014 heartbeat IPC: 4 cumulative IPC: 3.999 (Simulation time: 03 hr 22 min 58 sec)
Heartbeat CPU 2 instructions: 410000006 cycles: 102516468 heartbeat IPC: 4 cumulative IPC: 3.999 (Simulation time: 03 hr 22 min 58 sec)
Heartbeat CPU 1 instructions: 240000029 cycles: 104355820 heartbeat IPC: 2.394 cumulative IPC: 2.3 (Simulation time: 03 hr 26 min 25 sec)
Heartbeat CPU 3 instructions: 420000004 cycles: 105014014 heartbeat IPC: 4 cumulative IPC: 3.999 (Simulation time: 03 hr 27 min 32 sec)
Heartbeat CPU 2 instructions: 420000006 cycles: 105016468 heartbeat IPC: 4 cumulative IPC: 3.999 (Simulation time: 03 hr 27 min 32 sec)
Heartbeat CPU 0 instructions: 50000000 cycles: 106619597 heartbeat IPC: 0.4578 cumulative IPC: 0.469 (Simulation time: 03 hr 30 min 19 sec)
Warmup finished CPU 0 instructions: 50000000 cycles: 106619597 cumulative IPC: 0.469 (Simulation time: 03 hr 30 min 19 sec)
Warmup complete CPU 3 instructions: 426422336 cycles: 106619597 cumulative IPC: 3.999 (Simulation time: 03 hr 30 min 19 sec)
Warmup complete CPU 2 instructions: 426412522 cycles: 106619597 cumulative IPC: 3.999 (Simulation time: 03 hr 30 min 19 sec)
Warmup complete CPU 1 instructions: 245686886 cycles: 106619597 cumulative IPC: 2.304 (Simulation time: 03 hr 30 min 19 sec)
Warmup complete CPU 0 instructions: 50000000 cycles: 106619597 cumulative IPC: 0.469 (Simulation time: 03 hr 30 min 19 sec)
Heartbeat CPU 3 instructions: 430000004 cycles: 107514014 heartbeat IPC: 4 cumulative IPC: 4 (Simulation time: 03 hr 31 min 48 sec)
Heartbeat CPU 2 instructions: 430000006 cycles: 107516468 heartbeat IPC: 4 cumulative IPC: 4 (Simulation time: 03 hr 31 min 49 sec)
Heartbeat CPU 3 instructions: 440000004 cycles: 110014014 heartbeat IPC: 4 cumulative IPC: 4 (Simulation time: 03 hr 35 min 51 sec)
Heartbeat CPU 2 instructions: 440000006 cycles: 110016468 heartbeat IPC: 4 cumulative IPC: 4 (Simulation time: 03 hr 35 min 51 sec)
Heartbeat CPU 3 instructions: 450000004 cycles: 112514014 heartbeat IPC: 4 cumulative IPC: 4 (Simulation time: 03 hr 39 min 52 sec)
Heartbeat CPU 2 instructions: 450000006 cycles: 112516468 heartbeat IPC: 4 cumulative IPC: 4 (Simulation time: 03 hr 39 min 52 sec)
*** Reached end of trace: (2, "traces/ocean_8t/ocean2.champsimtrace")
*** Reached end of trace: (3, "traces/ocean_8t/ocean3.champsimtrace")
Heartbeat CPU 3 instructions: 460000007 cycles: 115014031 heartbeat IPC: 4 cumulative IPC: 4 (Simulation time: 03 hr 43 min 47 sec)
Heartbeat CPU 2 instructions: 460000007 cycles: 115016491 heartbeat IPC: 4 cumulative IPC: 4 (Simulation time: 03 hr 43 min 47 sec)
Heartbeat CPU 3 instructions: 470000007 cycles: 117514031 heartbeat IPC: 4 cumulative IPC: 4 (Simulation time: 03 hr 47 min 42 sec)
Heartbeat CPU 2 instructions: 470000007 cycles: 117516491 heartbeat IPC: 4 cumulative IPC: 4 (Simulation time: 03 hr 47 min 42 sec)
Heartbeat CPU 1 instructions: 250000029 cycles: 119683548 heartbeat IPC: 0.6524 cumulative IPC: 0.3302 (Simulation time: 03 hr 51 min 14 sec)
Heartbeat CPU 3 instructions: 480000007 cycles: 120014031 heartbeat IPC: 4 cumulative IPC: 4 (Simulation time: 03 hr 51 min 45 sec)
Heartbeat CPU 2 instructions: 480000007 cycles: 120016491 heartbeat IPC: 4 cumulative IPC: 4 (Simulation time: 03 hr 51 min 45 sec)
Heartbeat CPU 3 instructions: 490000007 cycles: 122514031 heartbeat IPC: 4 cumulative IPC: 4 (Simulation time: 03 hr 55 min 45 sec)
Heartbeat CPU 2 instructions: 490000007 cycles: 122516491 heartbeat IPC: 4 cumulative IPC: 4 (Simulation time: 03 hr 55 min 45 sec)
*** Reached end of trace: (2, "traces/ocean_8t/ocean2.champsimtrace")
*** Reached end of trace: (3, "traces/ocean_8t/ocean3.champsimtrace")
Heartbeat CPU 3 instructions: 500000010 cycles: 125014048 heartbeat IPC: 4 cumulative IPC: 4 (Simulation time: 03 hr 59 min 48 sec)
Heartbeat CPU 2 instructions: 500000008 cycles: 125016514 heartbeat IPC: 4 cumulative IPC: 4 (Simulation time: 03 hr 59 min 49 sec)
Heartbeat CPU 3 instructions: 510000010 cycles: 127514048 heartbeat IPC: 4 cumulative IPC: 4 (Simulation time: 04 hr 03 min 54 sec)
Heartbeat CPU 2 instructions: 510000008 cycles: 127516514 heartbeat IPC: 4 cumulative IPC: 4 (Simulation time: 04 hr 03 min 54 sec)
Heartbeat CPU 3 instructions: 520000010 cycles: 130014048 heartbeat IPC: 4 cumulative IPC: 4 (Simulation time: 04 hr 07 min 51 sec)
Heartbeat CPU 2 instructions: 520000008 cycles: 130016514 heartbeat IPC: 4 cumulative IPC: 4 (Simulation time: 04 hr 07 min 51 sec)
Simulation finished CPU 3 instructions: 100000002 cycles: 25000033 cumulative IPC: 4 (Simulation time: 04 hr 10 min 25 sec)
Simulation finished CPU 2 instructions: 100000002 cycles: 25000046 cumulative IPC: 4 (Simulation time: 04 hr 10 min 25 sec)
Heartbeat CPU 3 instructions: 530000010 cycles: 132514048 heartbeat IPC: 4 cumulative IPC: 4 (Simulation time: 04 hr 11 min 51 sec)
Heartbeat CPU 2 instructions: 530000008 cycles: 132516514 heartbeat IPC: 4 cumulative IPC: 4 (Simulation time: 04 hr 11 min 52 sec)
Heartbeat CPU 3 instructions: 540000010 cycles: 135014048 heartbeat IPC: 4 cumulative IPC: 4 (Simulation time: 04 hr 16 min 01 sec)
Heartbeat CPU 2 instructions: 540000008 cycles: 135016514 heartbeat IPC: 4 cumulative IPC: 4 (Simulation time: 04 hr 16 min 02 sec)
*** Reached end of trace: (2, "traces/ocean_8t/ocean2.champsimtrace")
*** Reached end of trace: (3, "traces/ocean_8t/ocean3.champsimtrace")
Heartbeat CPU 3 instructions: 550000013 cycles: 137514065 heartbeat IPC: 4 cumulative IPC: 4 (Simulation time: 04 hr 20 min 11 sec)
Heartbeat CPU 2 instructions: 550000009 cycles: 137516537 heartbeat IPC: 4 cumulative IPC: 4 (Simulation time: 04 hr 20 min 11 sec)
Heartbeat CPU 3 instructions: 560000013 cycles: 140014065 heartbeat IPC: 4 cumulative IPC: 4 (Simulation time: 04 hr 24 min 21 sec)
Heartbeat CPU 2 instructions: 560000009 cycles: 140016537 heartbeat IPC: 4 cumulative IPC: 4 (Simulation time: 04 hr 24 min 21 sec)
Heartbeat CPU 3 instructions: 570000013 cycles: 142514065 heartbeat IPC: 4 cumulative IPC: 4 (Simulation time: 04 hr 28 min 35 sec)
Heartbeat CPU 2 instructions: 570000009 cycles: 142516537 heartbeat IPC: 4 cumulative IPC: 4 (Simulation time: 04 hr 28 min 35 sec)
Heartbeat CPU 3 instructions: 580000013 cycles: 145014065 heartbeat IPC: 4 cumulative IPC: 4 (Simulation time: 04 hr 32 min 51 sec)
Heartbeat CPU 2 instructions: 580000009 cycles: 145016537 heartbeat IPC: 4 cumulative IPC: 4 (Simulation time: 04 hr 32 min 52 sec)
*** Reached end of trace: (2, "traces/ocean_8t/ocean2.champsimtrace")
Heartbeat CPU 3 instructions: 590000013 cycles: 147514065 heartbeat IPC: 4 cumulative IPC: 4 (Simulation time: 04 hr 37 min 07 sec)
Heartbeat CPU 2 instructions: 590000010 cycles: 147516560 heartbeat IPC: 4 cumulative IPC: 4 (Simulation time: 04 hr 37 min 08 sec)
*** Reached end of trace: (3, "traces/ocean_8t/ocean3.champsimtrace")
Heartbeat CPU 3 instructions: 600000016 cycles: 150014082 heartbeat IPC: 4 cumulative IPC: 4 (Simulation time: 04 hr 41 min 23 sec)
Heartbeat CPU 2 instructions: 600000010 cycles: 150016560 heartbeat IPC: 4 cumulative IPC: 4 (Simulation time: 04 hr 41 min 23 sec)
Heartbeat CPU 0 instructions: 60000003 cycles: 152396985 heartbeat IPC: 0.2184 cumulative IPC: 0.2184 (Simulation time: 04 hr 45 min 23 sec)
Heartbeat CPU 3 instructions: 610000016 cycles: 152514082 heartbeat IPC: 4 cumulative IPC: 4 (Simulation time: 04 hr 45 min 35 sec)
Heartbeat CPU 2 instructions: 610000010 cycles: 152516560 heartbeat IPC: 4 cumulative IPC: 4 (Simulation time: 04 hr 45 min 35 sec)
Heartbeat CPU 3 instructions: 620000016 cycles: 155014082 heartbeat IPC: 4 cumulative IPC: 4 (Simulation time: 04 hr 49 min 48 sec)
Heartbeat CPU 2 instructions: 620000010 cycles: 155016560 heartbeat IPC: 4 cumulative IPC: 4 (Simulation time: 04 hr 49 min 48 sec)
Heartbeat CPU 3 instructions: 630000016 cycles: 157514082 heartbeat IPC: 4 cumulative IPC: 4 (Simulation time: 04 hr 54 min 07 sec)
Heartbeat CPU 2 instructions: 630000010 cycles: 157516560 heartbeat IPC: 4 cumulative IPC: 4 (Simulation time: 04 hr 54 min 07 sec)
*** Reached end of trace: (2, "traces/ocean_8t/ocean2.champsimtrace")
*** Reached end of trace: (3, "traces/ocean_8t/ocean3.champsimtrace")
Heartbeat CPU 3 instructions: 640000019 cycles: 160014099 heartbeat IPC: 4 cumulative IPC: 4 (Simulation time: 04 hr 58 min 34 sec)
Heartbeat CPU 2 instructions: 640000011 cycles: 160016583 heartbeat IPC: 4 cumulative IPC: 4 (Simulation time: 04 hr 58 min 34 sec)
Heartbeat CPU 1 instructions: 260000030 cycles: 160820343 heartbeat IPC: 0.2431 cumulative IPC: 0.2641 (Simulation time: 05 hr 00 min 02 sec)
Heartbeat CPU 3 instructions: 650000019 cycles: 162514099 heartbeat IPC: 4 cumulative IPC: 4 (Simulation time: 05 hr 03 min 06 sec)
Heartbeat CPU 2 instructions: 650000011 cycles: 162516583 heartbeat IPC: 4 cumulative IPC: 4 (Simulation time: 05 hr 03 min 06 sec)
Heartbeat CPU 3 instructions: 660000019 cycles: 165014099 heartbeat IPC: 4 cumulative IPC: 4 (Simulation time: 05 hr 07 min 32 sec)
Heartbeat CPU 2 instructions: 660000011 cycles: 165016583 heartbeat IPC: 4 cumulative IPC: 4 (Simulation time: 05 hr 07 min 32 sec)
Heartbeat CPU 3 instructions: 670000019 cycles: 167514099 heartbeat IPC: 4 cumulative IPC: 4 (Simulation time: 05 hr 11 min 55 sec)
Heartbeat CPU 2 instructions: 670000011 cycles: 167516583 heartbeat IPC: 4 cumulative IPC: 4 (Simulation time: 05 hr 11 min 55 sec)
*** Reached end of trace: (2, "traces/ocean_8t/ocean2.champsimtrace")
Heartbeat CPU 3 instructions: 680000019 cycles: 170014099 heartbeat IPC: 4 cumulative IPC: 4 (Simulation time: 05 hr 16 min 18 sec)
Heartbeat CPU 2 instructions: 680000012 cycles: 170016606 heartbeat IPC: 4 cumulative IPC: 4 (Simulation time: 05 hr 16 min 19 sec)
*** Reached end of trace: (3, "traces/ocean_8t/ocean3.champsimtrace")
Heartbeat CPU 3 instructions: 690000022 cycles: 172514116 heartbeat IPC: 4 cumulative IPC: 4 (Simulation time: 05 hr 20 min 35 sec)
Heartbeat CPU 2 instructions: 690000012 cycles: 172516606 heartbeat IPC: 4 cumulative IPC: 4 (Simulation time: 05 hr 20 min 35 sec)
Heartbeat CPU 3 instructions: 700000022 cycles: 175014116 heartbeat IPC: 4 cumulative IPC: 4 (Simulation time: 05 hr 24 min 49 sec)
Heartbeat CPU 2 instructions: 700000012 cycles: 175016606 heartbeat IPC: 4 cumulative IPC: 4 (Simulation time: 05 hr 24 min 49 sec)
Heartbeat CPU 3 instructions: 710000022 cycles: 177514116 heartbeat IPC: 4 cumulative IPC: 4 (Simulation time: 05 hr 29 min 10 sec)
Heartbeat CPU 2 instructions: 710000012 cycles: 177516606 heartbeat IPC: 4 cumulative IPC: 4 (Simulation time: 05 hr 29 min 10 sec)
Heartbeat CPU 3 instructions: 720000022 cycles: 180014116 heartbeat IPC: 4 cumulative IPC: 4 (Simulation time: 05 hr 33 min 27 sec)
Heartbeat CPU 2 instructions: 720000012 cycles: 180016606 heartbeat IPC: 4 cumulative IPC: 4 (Simulation time: 05 hr 33 min 28 sec)
*** Reached end of trace: (2, "traces/ocean_8t/ocean2.champsimtrace")
*** Reached end of trace: (3, "traces/ocean_8t/ocean3.champsimtrace")
Heartbeat CPU 3 instructions: 730000025 cycles: 182514133 heartbeat IPC: 4 cumulative IPC: 4 (Simulation time: 05 hr 37 min 52 sec)
Heartbeat CPU 2 instructions: 730000013 cycles: 182516629 heartbeat IPC: 4 cumulative IPC: 4 (Simulation time: 05 hr 37 min 52 sec)
Heartbeat CPU 3 instructions: 740000025 cycles: 185014133 heartbeat IPC: 4 cumulative IPC: 4 (Simulation time: 05 hr 42 min 10 sec)
Heartbeat CPU 2 instructions: 740000013 cycles: 185016629 heartbeat IPC: 4 cumulative IPC: 4 (Simulation time: 05 hr 42 min 10 sec)
Heartbeat CPU 3 instructions: 750000025 cycles: 187514133 heartbeat IPC: 4 cumulative IPC: 4 (Simulation time: 05 hr 46 min 21 sec)
Heartbeat CPU 2 instructions: 750000013 cycles: 187516629 heartbeat IPC: 4 cumulative IPC: 4 (Simulation time: 05 hr 46 min 21 sec)
Heartbeat CPU 3 instructions: 760000025 cycles: 190014133 heartbeat IPC: 4 cumulative IPC: 4 (Simulation time: 05 hr 50 min 45 sec)
Heartbeat CPU 2 instructions: 760000013 cycles: 190016629 heartbeat IPC: 4 cumulative IPC: 4 (Simulation time: 05 hr 50 min 45 sec)
*** Reached end of trace: (2, "traces/ocean_8t/ocean2.champsimtrace")
Heartbeat CPU 3 instructions: 770000025 cycles: 192514133 heartbeat IPC: 4 cumulative IPC: 4 (Simulation time: 05 hr 54 min 58 sec)
Heartbeat CPU 2 instructions: 770000014 cycles: 192516652 heartbeat IPC: 4 cumulative IPC: 4 (Simulation time: 05 hr 54 min 58 sec)
*** Reached end of trace: (3, "traces/ocean_8t/ocean3.champsimtrace")
Heartbeat CPU 3 instructions: 780000028 cycles: 195014150 heartbeat IPC: 4 cumulative IPC: 4 (Simulation time: 05 hr 59 min 14 sec)
Heartbeat CPU 2 instructions: 780000014 cycles: 195016652 heartbeat IPC: 4 cumulative IPC: 4 (Simulation time: 05 hr 59 min 15 sec)
Heartbeat CPU 3 instructions: 790000028 cycles: 197514150 heartbeat IPC: 4 cumulative IPC: 4 (Simulation time: 06 hr 03 min 23 sec)
Heartbeat CPU 2 instructions: 790000014 cycles: 197516652 heartbeat IPC: 4 cumulative IPC: 4 (Simulation time: 06 hr 03 min 23 sec)
Heartbeat CPU 1 instructions: 270000030 cycles: 198834899 heartbeat IPC: 0.2631 cumulative IPC: 0.2637 (Simulation time: 06 hr 05 min 35 sec)
Heartbeat CPU 3 instructions: 800000028 cycles: 200014150 heartbeat IPC: 4 cumulative IPC: 4 (Simulation time: 06 hr 07 min 34 sec)
Heartbeat CPU 2 instructions: 800000014 cycles: 200016652 heartbeat IPC: 4 cumulative IPC: 4 (Simulation time: 06 hr 07 min 34 sec)
Heartbeat CPU 3 instructions: 810000028 cycles: 202514150 heartbeat IPC: 4 cumulative IPC: 4 (Simulation time: 06 hr 11 min 42 sec)
Heartbeat CPU 2 instructions: 810000014 cycles: 202516652 heartbeat IPC: 4 cumulative IPC: 4 (Simulation time: 06 hr 11 min 42 sec)
*** Reached end of trace: (2, "traces/ocean_8t/ocean2.champsimtrace")
*** Reached end of trace: (3, "traces/ocean_8t/ocean3.champsimtrace")
Heartbeat CPU 3 instructions: 820000031 cycles: 205014167 heartbeat IPC: 4 cumulative IPC: 4 (Simulation time: 06 hr 15 min 46 sec)
Heartbeat CPU 2 instructions: 820000015 cycles: 205016675 heartbeat IPC: 4 cumulative IPC: 4 (Simulation time: 06 hr 15 min 46 sec)
*** Reached end of trace: (1, "traces/ocean_8t/ocean1.champsimtrace")
Heartbeat CPU 3 instructions: 830000031 cycles: 207514167 heartbeat IPC: 4 cumulative IPC: 4 (Simulation time: 06 hr 19 min 49 sec)
Heartbeat CPU 2 instructions: 830000015 cycles: 207516675 heartbeat IPC: 4 cumulative IPC: 4 (Simulation time: 06 hr 19 min 50 sec)
Heartbeat CPU 3 instructions: 840000031 cycles: 210014167 heartbeat IPC: 4 cumulative IPC: 4 (Simulation time: 06 hr 23 min 50 sec)
Heartbeat CPU 2 instructions: 840000015 cycles: 210016675 heartbeat IPC: 4 cumulative IPC: 4 (Simulation time: 06 hr 23 min 51 sec)
Heartbeat CPU 3 instructions: 850000031 cycles: 212514167 heartbeat IPC: 4 cumulative IPC: 4 (Simulation time: 06 hr 27 min 56 sec)
Heartbeat CPU 2 instructions: 850000015 cycles: 212516675 heartbeat IPC: 4 cumulative IPC: 4 (Simulation time: 06 hr 27 min 57 sec)
*** Reached end of trace: (2, "traces/ocean_8t/ocean2.champsimtrace")
Heartbeat CPU 3 instructions: 860000031 cycles: 215014167 heartbeat IPC: 4 cumulative IPC: 4 (Simulation time: 06 hr 32 min 03 sec)
Heartbeat CPU 2 instructions: 860000016 cycles: 215016698 heartbeat IPC: 4 cumulative IPC: 4 (Simulation time: 06 hr 32 min 03 sec)
*** Reached end of trace: (3, "traces/ocean_8t/ocean3.champsimtrace")
Heartbeat CPU 3 instructions: 870000034 cycles: 217514184 heartbeat IPC: 4 cumulative IPC: 4 (Simulation time: 06 hr 36 min 07 sec)
Heartbeat CPU 2 instructions: 870000016 cycles: 217516698 heartbeat IPC: 4 cumulative IPC: 4 (Simulation time: 06 hr 36 min 07 sec)
Heartbeat CPU 0 instructions: 70000003 cycles: 219064341 heartbeat IPC: 0.15 cumulative IPC: 0.1779 (Simulation time: 06 hr 38 min 38 sec)
Heartbeat CPU 3 instructions: 880000034 cycles: 220014184 heartbeat IPC: 4 cumulative IPC: 4 (Simulation time: 06 hr 40 min 16 sec)
Heartbeat CPU 2 instructions: 880000016 cycles: 220016698 heartbeat IPC: 4 cumulative IPC: 4 (Simulation time: 06 hr 40 min 16 sec)
Heartbeat CPU 1 instructions: 280000030 cycles: 221095812 heartbeat IPC: 0.4492 cumulative IPC: 0.2997 (Simulation time: 06 hr 42 min 04 sec)
Heartbeat CPU 3 instructions: 890000034 cycles: 222514184 heartbeat IPC: 4 cumulative IPC: 4 (Simulation time: 06 hr 44 min 23 sec)
Heartbeat CPU 2 instructions: 890000016 cycles: 222516698 heartbeat IPC: 4 cumulative IPC: 4 (Simulation time: 06 hr 44 min 23 sec)
Heartbeat CPU 3 instructions: 900000034 cycles: 225014184 heartbeat IPC: 4 cumulative IPC: 4 (Simulation time: 06 hr 48 min 24 sec)
Heartbeat CPU 2 instructions: 900000016 cycles: 225016698 heartbeat IPC: 4 cumulative IPC: 4 (Simulation time: 06 hr 48 min 24 sec)
*** Reached end of trace: (2, "traces/ocean_8t/ocean2.champsimtrace")
*** Reached end of trace: (3, "traces/ocean_8t/ocean3.champsimtrace")
Heartbeat CPU 3 instructions: 910000037 cycles: 227514201 heartbeat IPC: 4 cumulative IPC: 4 (Simulation time: 06 hr 52 min 04 sec)
Heartbeat CPU 2 instructions: 910000017 cycles: 227516721 heartbeat IPC: 4 cumulative IPC: 4 (Simulation time: 06 hr 52 min 04 sec)
Heartbeat CPU 3 instructions: 920000037 cycles: 230014201 heartbeat IPC: 4 cumulative IPC: 4 (Simulation time: 06 hr 55 min 46 sec)
Heartbeat CPU 2 instructions: 920000017 cycles: 230016721 heartbeat IPC: 4 cumulative IPC: 4 (Simulation time: 06 hr 55 min 47 sec)
Heartbeat CPU 3 instructions: 930000037 cycles: 232514201 heartbeat IPC: 4 cumulative IPC: 4 (Simulation time: 06 hr 59 min 54 sec)
Heartbeat CPU 2 instructions: 930000017 cycles: 232516721 heartbeat IPC: 4 cumulative IPC: 4 (Simulation time: 06 hr 59 min 54 sec)
Heartbeat CPU 3 instructions: 940000037 cycles: 235014201 heartbeat IPC: 4 cumulative IPC: 4 (Simulation time: 07 hr 04 min 12 sec)
Heartbeat CPU 2 instructions: 940000017 cycles: 235016721 heartbeat IPC: 4 cumulative IPC: 4 (Simulation time: 07 hr 04 min 13 sec)
*** Reached end of trace: (2, "traces/ocean_8t/ocean2.champsimtrace")
Heartbeat CPU 3 instructions: 950000037 cycles: 237514201 heartbeat IPC: 4 cumulative IPC: 4 (Simulation time: 07 hr 08 min 30 sec)
Heartbeat CPU 2 instructions: 950000018 cycles: 237516744 heartbeat IPC: 4 cumulative IPC: 4 (Simulation time: 07 hr 08 min 30 sec)
*** Reached end of trace: (3, "traces/ocean_8t/ocean3.champsimtrace")
Heartbeat CPU 3 instructions: 960000040 cycles: 240014218 heartbeat IPC: 4 cumulative IPC: 4 (Simulation time: 07 hr 12 min 55 sec)
Heartbeat CPU 2 instructions: 960000018 cycles: 240016744 heartbeat IPC: 4 cumulative IPC: 4 (Simulation time: 07 hr 12 min 55 sec)
Heartbeat CPU 3 instructions: 970000040 cycles: 242514218 heartbeat IPC: 4 cumulative IPC: 4 (Simulation time: 07 hr 17 min 13 sec)
Heartbeat CPU 2 instructions: 970000018 cycles: 242516744 heartbeat IPC: 4 cumulative IPC: 4 (Simulation time: 07 hr 17 min 13 sec)
Heartbeat CPU 3 instructions: 980000040 cycles: 245014218 heartbeat IPC: 4 cumulative IPC: 4 (Simulation time: 07 hr 21 min 33 sec)
Heartbeat CPU 2 instructions: 980000018 cycles: 245016744 heartbeat IPC: 4 cumulative IPC: 4 (Simulation time: 07 hr 21 min 33 sec)
Heartbeat CPU 1 instructions: 290000030 cycles: 246787381 heartbeat IPC: 0.3892 cumulative IPC: 0.3161 (Simulation time: 07 hr 24 min 41 sec)
Heartbeat CPU 3 instructions: 990000040 cycles: 247514218 heartbeat IPC: 4 cumulative IPC: 4 (Simulation time: 07 hr 25 min 59 sec)
Heartbeat CPU 2 instructions: 990000018 cycles: 247516744 heartbeat IPC: 4 cumulative IPC: 4 (Simulation time: 07 hr 26 min 00 sec)
*** Reached end of trace: (2, "traces/ocean_8t/ocean2.champsimtrace")
*** Reached end of trace: (3, "traces/ocean_8t/ocean3.champsimtrace")
Heartbeat CPU 3 instructions: 1000000043 cycles: 250014235 heartbeat IPC: 4 cumulative IPC: 4 (Simulation time: 07 hr 30 min 30 sec)
Heartbeat CPU 2 instructions: 1000000019 cycles: 250016767 heartbeat IPC: 4 cumulative IPC: 4 (Simulation time: 07 hr 30 min 30 sec)
Heartbeat CPU 3 instructions: 1010000043 cycles: 252514235 heartbeat IPC: 4 cumulative IPC: 4 (Simulation time: 07 hr 34 min 59 sec)
Heartbeat CPU 2 instructions: 1010000019 cycles: 252516767 heartbeat IPC: 4 cumulative IPC: 4 (Simulation time: 07 hr 34 min 59 sec)
Heartbeat CPU 3 instructions: 1020000043 cycles: 255014235 heartbeat IPC: 4 cumulative IPC: 4 (Simulation time: 07 hr 39 min 26 sec)
Heartbeat CPU 2 instructions: 1020000019 cycles: 255016767 heartbeat IPC: 4 cumulative IPC: 4 (Simulation time: 07 hr 39 min 26 sec)
Heartbeat CPU 3 instructions: 1030000043 cycles: 257514235 heartbeat IPC: 4 cumulative IPC: 4 (Simulation time: 07 hr 43 min 40 sec)
Heartbeat CPU 2 instructions: 1030000019 cycles: 257516767 heartbeat IPC: 4 cumulative IPC: 4 (Simulation time: 07 hr 43 min 40 sec)
*** Reached end of trace: (2, "traces/ocean_8t/ocean2.champsimtrace")
Heartbeat CPU 3 instructions: 1040000043 cycles: 260014235 heartbeat IPC: 4 cumulative IPC: 4 (Simulation time: 07 hr 47 min 50 sec)
Heartbeat CPU 2 instructions: 1040000020 cycles: 260016790 heartbeat IPC: 4 cumulative IPC: 4 (Simulation time: 07 hr 47 min 50 sec)
*** Reached end of trace: (3, "traces/ocean_8t/ocean3.champsimtrace")
Heartbeat CPU 3 instructions: 1050000046 cycles: 262514252 heartbeat IPC: 4 cumulative IPC: 4 (Simulation time: 07 hr 52 min 06 sec)
Heartbeat CPU 2 instructions: 1050000020 cycles: 262516790 heartbeat IPC: 4 cumulative IPC: 4 (Simulation time: 07 hr 52 min 06 sec)
Heartbeat CPU 3 instructions: 1060000046 cycles: 265014252 heartbeat IPC: 4 cumulative IPC: 4 (Simulation time: 07 hr 56 min 25 sec)
Heartbeat CPU 2 instructions: 1060000020 cycles: 265016790 heartbeat IPC: 4 cumulative IPC: 4 (Simulation time: 07 hr 56 min 26 sec)
Heartbeat CPU 3 instructions: 1070000046 cycles: 267514252 heartbeat IPC: 4 cumulative IPC: 4 (Simulation time: 08 hr 00 min 35 sec)
Heartbeat CPU 2 instructions: 1070000020 cycles: 267516790 heartbeat IPC: 4 cumulative IPC: 4 (Simulation time: 08 hr 00 min 35 sec)
Heartbeat CPU 3 instructions: 1080000046 cycles: 270014252 heartbeat IPC: 4 cumulative IPC: 4 (Simulation time: 08 hr 04 min 39 sec)
Heartbeat CPU 2 instructions: 1080000020 cycles: 270016790 heartbeat IPC: 4 cumulative IPC: 4 (Simulation time: 08 hr 04 min 39 sec)
*** Reached end of trace: (2, "traces/ocean_8t/ocean2.champsimtrace")
*** Reached end of trace: (3, "traces/ocean_8t/ocean3.champsimtrace")
Heartbeat CPU 3 instructions: 1090000049 cycles: 272514269 heartbeat IPC: 4 cumulative IPC: 4 (Simulation time: 08 hr 08 min 44 sec)
Heartbeat CPU 2 instructions: 1090000021 cycles: 272516813 heartbeat IPC: 4 cumulative IPC: 4 (Simulation time: 08 hr 08 min 44 sec)
Heartbeat CPU 3 instructions: 1100000049 cycles: 275014269 heartbeat IPC: 4 cumulative IPC: 4 (Simulation time: 08 hr 12 min 50 sec)
Heartbeat CPU 2 instructions: 1100000021 cycles: 275016813 heartbeat IPC: 4 cumulative IPC: 4 (Simulation time: 08 hr 12 min 50 sec)
Heartbeat CPU 0 instructions: 80000004 cycles: 276020454 heartbeat IPC: 0.1756 cumulative IPC: 0.1771 (Simulation time: 08 hr 14 min 30 sec)
Heartbeat CPU 3 instructions: 1110000049 cycles: 277514269 heartbeat IPC: 4 cumulative IPC: 4 (Simulation time: 08 hr 16 min 54 sec)
Heartbeat CPU 2 instructions: 1110000021 cycles: 277516813 heartbeat IPC: 4 cumulative IPC: 4 (Simulation time: 08 hr 16 min 54 sec)
Heartbeat CPU 3 instructions: 1120000049 cycles: 280014269 heartbeat IPC: 4 cumulative IPC: 4 (Simulation time: 08 hr 21 min 02 sec)
Heartbeat CPU 2 instructions: 1120000021 cycles: 280016813 heartbeat IPC: 4 cumulative IPC: 4 (Simulation time: 08 hr 21 min 02 sec)
*** Reached end of trace: (2, "traces/ocean_8t/ocean2.champsimtrace")
Heartbeat CPU 3 instructions: 1130000049 cycles: 282514269 heartbeat IPC: 4 cumulative IPC: 4 (Simulation time: 08 hr 25 min 06 sec)
Heartbeat CPU 2 instructions: 1130000022 cycles: 282516836 heartbeat IPC: 4 cumulative IPC: 4 (Simulation time: 08 hr 25 min 06 sec)
*** Reached end of trace: (3, "traces/ocean_8t/ocean3.champsimtrace")
Heartbeat CPU 3 instructions: 1140000052 cycles: 285014286 heartbeat IPC: 4 cumulative IPC: 4 (Simulation time: 08 hr 29 min 09 sec)
Heartbeat CPU 2 instructions: 1140000022 cycles: 285016836 heartbeat IPC: 4 cumulative IPC: 4 (Simulation time: 08 hr 29 min 09 sec)
Heartbeat CPU 1 instructions: 300000031 cycles: 287394101 heartbeat IPC: 0.2463 cumulative IPC: 0.3004 (Simulation time: 08 hr 33 min 09 sec)
Heartbeat CPU 3 instructions: 1150000052 cycles: 287514286 heartbeat IPC: 4 cumulative IPC: 4 (Simulation time: 08 hr 33 min 22 sec)
Heartbeat CPU 2 instructions: 1150000022 cycles: 287516836 heartbeat IPC: 4 cumulative IPC: 4 (Simulation time: 08 hr 33 min 22 sec)
Heartbeat CPU 3 instructions: 1160000052 cycles: 290014286 heartbeat IPC: 4 cumulative IPC: 4 (Simulation time: 08 hr 37 min 33 sec)
Heartbeat CPU 2 instructions: 1160000022 cycles: 290016836 heartbeat IPC: 4 cumulative IPC: 4 (Simulation time: 08 hr 37 min 34 sec)
Heartbeat CPU 3 instructions: 1170000052 cycles: 292514286 heartbeat IPC: 4 cumulative IPC: 4 (Simulation time: 08 hr 41 min 35 sec)
Heartbeat CPU 2 instructions: 1170000022 cycles: 292516836 heartbeat IPC: 4 cumulative IPC: 4 (Simulation time: 08 hr 41 min 35 sec)
*** Reached end of trace: (2, "traces/ocean_8t/ocean2.champsimtrace")
Heartbeat CPU 3 instructions: 1180000052 cycles: 295014286 heartbeat IPC: 4 cumulative IPC: 4 (Simulation time: 08 hr 45 min 38 sec)
Heartbeat CPU 2 instructions: 1180000023 cycles: 295016859 heartbeat IPC: 4 cumulative IPC: 4 (Simulation time: 08 hr 45 min 39 sec)
*** Reached end of trace: (3, "traces/ocean_8t/ocean3.champsimtrace")
Heartbeat CPU 3 instructions: 1190000055 cycles: 297514303 heartbeat IPC: 4 cumulative IPC: 4 (Simulation time: 08 hr 49 min 40 sec)
Heartbeat CPU 2 instructions: 1190000023 cycles: 297516859 heartbeat IPC: 4 cumulative IPC: 4 (Simulation time: 08 hr 49 min 41 sec)
Heartbeat CPU 3 instructions: 1200000055 cycles: 300014303 heartbeat IPC: 4 cumulative IPC: 4 (Simulation time: 08 hr 53 min 43 sec)
Heartbeat CPU 2 instructions: 1200000023 cycles: 300016859 heartbeat IPC: 4 cumulative IPC: 4 (Simulation time: 08 hr 53 min 43 sec)
Heartbeat CPU 3 instructions: 1210000055 cycles: 302514303 heartbeat IPC: 4 cumulative IPC: 4 (Simulation time: 08 hr 57 min 43 sec)
Heartbeat CPU 2 instructions: 1210000023 cycles: 302516859 heartbeat IPC: 4 cumulative IPC: 4 (Simulation time: 08 hr 57 min 44 sec)
Heartbeat CPU 3 instructions: 1220000055 cycles: 305014303 heartbeat IPC: 4 cumulative IPC: 4 (Simulation time: 09 hr 01 min 42 sec)
Heartbeat CPU 2 instructions: 1220000023 cycles: 305016859 heartbeat IPC: 4 cumulative IPC: 4 (Simulation time: 09 hr 01 min 42 sec)
*** Reached end of trace: (2, "traces/ocean_8t/ocean2.champsimtrace")
*** Reached end of trace: (3, "traces/ocean_8t/ocean3.champsimtrace")
Heartbeat CPU 3 instructions: 1230000058 cycles: 307514320 heartbeat IPC: 4 cumulative IPC: 4 (Simulation time: 09 hr 05 min 53 sec)
Heartbeat CPU 2 instructions: 1230000024 cycles: 307516882 heartbeat IPC: 4 cumulative IPC: 4 (Simulation time: 09 hr 05 min 53 sec)
Heartbeat CPU 3 instructions: 1240000058 cycles: 310014320 heartbeat IPC: 4 cumulative IPC: 4 (Simulation time: 09 hr 09 min 55 sec)
Heartbeat CPU 2 instructions: 1240000024 cycles: 310016882 heartbeat IPC: 4 cumulative IPC: 4 (Simulation time: 09 hr 09 min 55 sec)
Heartbeat CPU 3 instructions: 1250000058 cycles: 312514320 heartbeat IPC: 4 cumulative IPC: 4 (Simulation time: 09 hr 14 min 01 sec)
Heartbeat CPU 2 instructions: 1250000024 cycles: 312516882 heartbeat IPC: 4 cumulative IPC: 4 (Simulation time: 09 hr 14 min 01 sec)
Heartbeat CPU 3 instructions: 1260000058 cycles: 315014320 heartbeat IPC: 4 cumulative IPC: 4 (Simulation time: 09 hr 18 min 11 sec)
Heartbeat CPU 2 instructions: 1260000024 cycles: 315016882 heartbeat IPC: 4 cumulative IPC: 4 (Simulation time: 09 hr 18 min 11 sec)
*** Reached end of trace: (2, "traces/ocean_8t/ocean2.champsimtrace")
Heartbeat CPU 3 instructions: 1270000058 cycles: 317514320 heartbeat IPC: 4 cumulative IPC: 4 (Simulation time: 09 hr 22 min 16 sec)
Heartbeat CPU 2 instructions: 1270000025 cycles: 317516905 heartbeat IPC: 4 cumulative IPC: 4 (Simulation time: 09 hr 22 min 16 sec)
*** Reached end of trace: (3, "traces/ocean_8t/ocean3.champsimtrace")
Heartbeat CPU 3 instructions: 1280000061 cycles: 320014337 heartbeat IPC: 4 cumulative IPC: 4 (Simulation time: 09 hr 26 min 39 sec)
Heartbeat CPU 2 instructions: 1280000025 cycles: 320016905 heartbeat IPC: 4 cumulative IPC: 4 (Simulation time: 09 hr 26 min 39 sec)
Heartbeat CPU 3 instructions: 1290000061 cycles: 322514337 heartbeat IPC: 4 cumulative IPC: 4 (Simulation time: 09 hr 30 min 51 sec)
Heartbeat CPU 2 instructions: 1290000025 cycles: 322516905 heartbeat IPC: 4 cumulative IPC: 4 (Simulation time: 09 hr 30 min 51 sec)
Heartbeat CPU 3 instructions: 1300000061 cycles: 325014337 heartbeat IPC: 4 cumulative IPC: 4 (Simulation time: 09 hr 35 min 05 sec)
Heartbeat CPU 2 instructions: 1300000025 cycles: 325016905 heartbeat IPC: 4 cumulative IPC: 4 (Simulation time: 09 hr 35 min 06 sec)
Heartbeat CPU 3 instructions: 1310000061 cycles: 327514337 heartbeat IPC: 4 cumulative IPC: 4 (Simulation time: 09 hr 39 min 14 sec)
Heartbeat CPU 2 instructions: 1310000025 cycles: 327516905 heartbeat IPC: 4 cumulative IPC: 4 (Simulation time: 09 hr 39 min 14 sec)
*** Reached end of trace: (2, "traces/ocean_8t/ocean2.champsimtrace")
*** Reached end of trace: (3, "traces/ocean_8t/ocean3.champsimtrace")
Heartbeat CPU 1 instructions: 310000034 cycles: 329434042 heartbeat IPC: 0.2379 cumulative IPC: 0.2886 (Simulation time: 09 hr 42 min 18 sec)
Heartbeat CPU 3 instructions: 1320000064 cycles: 330014354 heartbeat IPC: 4 cumulative IPC: 4 (Simulation time: 09 hr 43 min 13 sec)
Heartbeat CPU 2 instructions: 1320000026 cycles: 330016928 heartbeat IPC: 4 cumulative IPC: 4 (Simulation time: 09 hr 43 min 13 sec)
Heartbeat CPU 3 instructions: 1330000064 cycles: 332514354 heartbeat IPC: 4 cumulative IPC: 4 (Simulation time: 09 hr 47 min 28 sec)
Heartbeat CPU 2 instructions: 1330000026 cycles: 332516928 heartbeat IPC: 4 cumulative IPC: 4 (Simulation time: 09 hr 47 min 28 sec)
Heartbeat CPU 3 instructions: 1340000064 cycles: 335014354 heartbeat IPC: 4 cumulative IPC: 4 (Simulation time: 09 hr 51 min 30 sec)
Heartbeat CPU 2 instructions: 1340000026 cycles: 335016928 heartbeat IPC: 4 cumulative IPC: 4 (Simulation time: 09 hr 51 min 30 sec)
Heartbeat CPU 3 instructions: 1350000064 cycles: 337514354 heartbeat IPC: 4 cumulative IPC: 4 (Simulation time: 09 hr 55 min 45 sec)
Heartbeat CPU 2 instructions: 1350000026 cycles: 337516928 heartbeat IPC: 4 cumulative IPC: 4 (Simulation time: 09 hr 55 min 45 sec)
*** Reached end of trace: (2, "traces/ocean_8t/ocean2.champsimtrace")
Heartbeat CPU 3 instructions: 1360000064 cycles: 340014354 heartbeat IPC: 4 cumulative IPC: 4 (Simulation time: 09 hr 59 min 57 sec)
Heartbeat CPU 2 instructions: 1360000027 cycles: 340016951 heartbeat IPC: 4 cumulative IPC: 4 (Simulation time: 09 hr 59 min 57 sec)
*** Reached end of trace: (3, "traces/ocean_8t/ocean3.champsimtrace")
Heartbeat CPU 3 instructions: 1370000067 cycles: 342514371 heartbeat IPC: 4 cumulative IPC: 4 (Simulation time: 10 hr 04 min 11 sec)
Heartbeat CPU 2 instructions: 1370000027 cycles: 342516951 heartbeat IPC: 4 cumulative IPC: 4 (Simulation time: 10 hr 04 min 11 sec)
Heartbeat CPU 3 instructions: 1380000067 cycles: 345014371 heartbeat IPC: 4 cumulative IPC: 4 (Simulation time: 10 hr 08 min 18 sec)
Heartbeat CPU 2 instructions: 1380000027 cycles: 345016951 heartbeat IPC: 4 cumulative IPC: 4 (Simulation time: 10 hr 08 min 18 sec)
Heartbeat CPU 3 instructions: 1390000067 cycles: 347514371 heartbeat IPC: 4 cumulative IPC: 4 (Simulation time: 10 hr 12 min 20 sec)
Heartbeat CPU 2 instructions: 1390000027 cycles: 347516951 heartbeat IPC: 4 cumulative IPC: 4 (Simulation time: 10 hr 12 min 21 sec)
Heartbeat CPU 0 instructions: 90000006 cycles: 348492137 heartbeat IPC: 0.138 cumulative IPC: 0.1654 (Simulation time: 10 hr 13 min 56 sec)
Heartbeat CPU 3 instructions: 1400000067 cycles: 350014371 heartbeat IPC: 4 cumulative IPC: 4 (Simulation time: 10 hr 16 min 28 sec)
Heartbeat CPU 2 instructions: 1400000027 cycles: 350016951 heartbeat IPC: 4 cumulative IPC: 4 (Simulation time: 10 hr 16 min 28 sec)
*** Reached end of trace: (2, "traces/ocean_8t/ocean2.champsimtrace")
*** Reached end of trace: (3, "traces/ocean_8t/ocean3.champsimtrace")
Heartbeat CPU 3 instructions: 1410000070 cycles: 352514388 heartbeat IPC: 4 cumulative IPC: 4 (Simulation time: 10 hr 20 min 38 sec)
Heartbeat CPU 2 instructions: 1410000028 cycles: 352516974 heartbeat IPC: 4 cumulative IPC: 4 (Simulation time: 10 hr 20 min 39 sec)
*** Reached end of trace: (1, "traces/ocean_8t/ocean1.champsimtrace")
Heartbeat CPU 3 instructions: 1420000070 cycles: 355014388 heartbeat IPC: 4 cumulative IPC: 4 (Simulation time: 10 hr 24 min 46 sec)
Heartbeat CPU 2 instructions: 1420000028 cycles: 355016974 heartbeat IPC: 4 cumulative IPC: 4 (Simulation time: 10 hr 24 min 46 sec)
Heartbeat CPU 1 instructions: 320000035 cycles: 357231289 heartbeat IPC: 0.3597 cumulative IPC: 0.2965 (Simulation time: 10 hr 28 min 22 sec)
Heartbeat CPU 3 instructions: 1430000070 cycles: 357514388 heartbeat IPC: 4 cumulative IPC: 4 (Simulation time: 10 hr 28 min 49 sec)
Heartbeat CPU 2 instructions: 1430000028 cycles: 357516974 heartbeat IPC: 4 cumulative IPC: 4 (Simulation time: 10 hr 28 min 50 sec)
*** Reached end of trace: (0, "traces/ocean_8t/ocean0.champsimtrace")
Heartbeat CPU 3 instructions: 1440000070 cycles: 360014388 heartbeat IPC: 4 cumulative IPC: 4 (Simulation time: 10 hr 32 min 54 sec)
Heartbeat CPU 2 instructions: 1440000028 cycles: 360016974 heartbeat IPC: 4 cumulative IPC: 4 (Simulation time: 10 hr 32 min 54 sec)
*** Reached end of trace: (2, "traces/ocean_8t/ocean2.champsimtrace")
Heartbeat CPU 3 instructions: 1450000070 cycles: 362514388 heartbeat IPC: 4 cumulative IPC: 4 (Simulation time: 10 hr 36 min 53 sec)
Heartbeat CPU 2 instructions: 1450000029 cycles: 362516997 heartbeat IPC: 4 cumulative IPC: 4 (Simulation time: 10 hr 36 min 53 sec)
*** Reached end of trace: (3, "traces/ocean_8t/ocean3.champsimtrace")
Heartbeat CPU 3 instructions: 1460000073 cycles: 365014405 heartbeat IPC: 4 cumulative IPC: 4 (Simulation time: 10 hr 40 min 56 sec)
Heartbeat CPU 2 instructions: 1460000029 cycles: 365016997 heartbeat IPC: 4 cumulative IPC: 4 (Simulation time: 10 hr 40 min 57 sec)
Heartbeat CPU 3 instructions: 1470000073 cycles: 367514405 heartbeat IPC: 4 cumulative IPC: 4 (Simulation time: 10 hr 45 min 09 sec)
Heartbeat CPU 2 instructions: 1470000029 cycles: 367516997 heartbeat IPC: 4 cumulative IPC: 4 (Simulation time: 10 hr 45 min 09 sec)
Heartbeat CPU 3 instructions: 1480000073 cycles: 370014405 heartbeat IPC: 4 cumulative IPC: 4 (Simulation time: 10 hr 49 min 06 sec)
Heartbeat CPU 2 instructions: 1480000029 cycles: 370016997 heartbeat IPC: 4 cumulative IPC: 4 (Simulation time: 10 hr 49 min 06 sec)
Heartbeat CPU 3 instructions: 1490000073 cycles: 372514405 heartbeat IPC: 4 cumulative IPC: 4 (Simulation time: 10 hr 53 min 01 sec)
Heartbeat CPU 2 instructions: 1490000029 cycles: 372516997 heartbeat IPC: 4 cumulative IPC: 4 (Simulation time: 10 hr 53 min 01 sec)
*** Reached end of trace: (2, "traces/ocean_8t/ocean2.champsimtrace")
*** Reached end of trace: (3, "traces/ocean_8t/ocean3.champsimtrace")
Heartbeat CPU 3 instructions: 1500000076 cycles: 375014422 heartbeat IPC: 4 cumulative IPC: 4 (Simulation time: 10 hr 57 min 01 sec)
Heartbeat CPU 2 instructions: 1500000030 cycles: 375017020 heartbeat IPC: 4 cumulative IPC: 4 (Simulation time: 10 hr 57 min 02 sec)
Heartbeat CPU 1 instructions: 330000036 cycles: 376261461 heartbeat IPC: 0.5255 cumulative IPC: 0.3127 (Simulation time: 10 hr 59 min 07 sec)
Heartbeat CPU 3 instructions: 1510000076 cycles: 377514422 heartbeat IPC: 4 cumulative IPC: 4 (Simulation time: 11 hr 01 min 15 sec)
Heartbeat CPU 2 instructions: 1510000030 cycles: 377517020 heartbeat IPC: 4 cumulative IPC: 4 (Simulation time: 11 hr 01 min 15 sec)
Heartbeat CPU 3 instructions: 1520000076 cycles: 380014422 heartbeat IPC: 4 cumulative IPC: 4 (Simulation time: 11 hr 05 min 19 sec)
Heartbeat CPU 2 instructions: 1520000030 cycles: 380017020 heartbeat IPC: 4 cumulative IPC: 4 (Simulation time: 11 hr 05 min 19 sec)
Heartbeat CPU 3 instructions: 1530000076 cycles: 382514422 heartbeat IPC: 4 cumulative IPC: 4 (Simulation time: 11 hr 09 min 31 sec)
Heartbeat CPU 2 instructions: 1530000030 cycles: 382517020 heartbeat IPC: 4 cumulative IPC: 4 (Simulation time: 11 hr 09 min 31 sec)
*** Reached end of trace: (2, "traces/ocean_8t/ocean2.champsimtrace")
Heartbeat CPU 3 instructions: 1540000076 cycles: 385014422 heartbeat IPC: 4 cumulative IPC: 4 (Simulation time: 11 hr 13 min 37 sec)
Heartbeat CPU 2 instructions: 1540000031 cycles: 385017043 heartbeat IPC: 4 cumulative IPC: 4 (Simulation time: 11 hr 13 min 37 sec)
*** Reached end of trace: (3, "traces/ocean_8t/ocean3.champsimtrace")
Heartbeat CPU 3 instructions: 1550000079 cycles: 387514439 heartbeat IPC: 4 cumulative IPC: 4 (Simulation time: 11 hr 17 min 44 sec)
Heartbeat CPU 2 instructions: 1550000031 cycles: 387517043 heartbeat IPC: 4 cumulative IPC: 4 (Simulation time: 11 hr 17 min 44 sec)
Heartbeat CPU 0 instructions: 100000007 cycles: 388682030 heartbeat IPC: 0.2488 cumulative IPC: 0.1773 (Simulation time: 11 hr 19 min 35 sec)
Heartbeat CPU 3 instructions: 1560000079 cycles: 390014439 heartbeat IPC: 4 cumulative IPC: 4 (Simulation time: 11 hr 21 min 42 sec)
Heartbeat CPU 2 instructions: 1560000031 cycles: 390017043 heartbeat IPC: 4 cumulative IPC: 4 (Simulation time: 11 hr 21 min 43 sec)
Heartbeat CPU 3 instructions: 1570000079 cycles: 392514439 heartbeat IPC: 4 cumulative IPC: 4 (Simulation time: 11 hr 25 min 47 sec)
Heartbeat CPU 2 instructions: 1570000031 cycles: 392517043 heartbeat IPC: 4 cumulative IPC: 4 (Simulation time: 11 hr 25 min 47 sec)
Heartbeat CPU 3 instructions: 1580000079 cycles: 395014439 heartbeat IPC: 4 cumulative IPC: 4 (Simulation time: 11 hr 29 min 50 sec)
Heartbeat CPU 2 instructions: 1580000031 cycles: 395017043 heartbeat IPC: 4 cumulative IPC: 4 (Simulation time: 11 hr 29 min 50 sec)
*** Reached end of trace: (2, "traces/ocean_8t/ocean2.champsimtrace")
*** Reached end of trace: (3, "traces/ocean_8t/ocean3.champsimtrace")
Heartbeat CPU 3 instructions: 1590000082 cycles: 397514456 heartbeat IPC: 4 cumulative IPC: 4 (Simulation time: 11 hr 33 min 45 sec)
Heartbeat CPU 2 instructions: 1590000032 cycles: 397517066 heartbeat IPC: 4 cumulative IPC: 4 (Simulation time: 11 hr 33 min 45 sec)
Heartbeat CPU 3 instructions: 1600000082 cycles: 400014456 heartbeat IPC: 4 cumulative IPC: 4 (Simulation time: 11 hr 37 min 42 sec)
Heartbeat CPU 2 instructions: 1600000032 cycles: 400017066 heartbeat IPC: 4 cumulative IPC: 4 (Simulation time: 11 hr 37 min 42 sec)
Heartbeat CPU 3 instructions: 1610000082 cycles: 402514456 heartbeat IPC: 4 cumulative IPC: 4 (Simulation time: 11 hr 41 min 46 sec)
Heartbeat CPU 2 instructions: 1610000032 cycles: 402517066 heartbeat IPC: 4 cumulative IPC: 4 (Simulation time: 11 hr 41 min 47 sec)
Heartbeat CPU 1 instructions: 340000038 cycles: 402999126 heartbeat IPC: 0.374 cumulative IPC: 0.3182 (Simulation time: 11 hr 42 min 33 sec)
Heartbeat CPU 3 instructions: 1620000082 cycles: 405014456 heartbeat IPC: 4 cumulative IPC: 4 (Simulation time: 11 hr 45 min 51 sec)
Heartbeat CPU 2 instructions: 1620000032 cycles: 405017066 heartbeat IPC: 4 cumulative IPC: 4 (Simulation time: 11 hr 45 min 51 sec)
*** Reached end of trace: (2, "traces/ocean_8t/ocean2.champsimtrace")
Heartbeat CPU 3 instructions: 1630000082 cycles: 407514456 heartbeat IPC: 4 cumulative IPC: 4 (Simulation time: 11 hr 49 min 48 sec)
Heartbeat CPU 2 instructions: 1630000033 cycles: 407517089 heartbeat IPC: 4 cumulative IPC: 4 (Simulation time: 11 hr 49 min 48 sec)
*** Reached end of trace: (3, "traces/ocean_8t/ocean3.champsimtrace")
Heartbeat CPU 3 instructions: 1640000085 cycles: 410014473 heartbeat IPC: 4 cumulative IPC: 4 (Simulation time: 11 hr 53 min 52 sec)
Heartbeat CPU 2 instructions: 1640000033 cycles: 410017089 heartbeat IPC: 4 cumulative IPC: 4 (Simulation time: 11 hr 53 min 52 sec)
Heartbeat CPU 3 instructions: 1650000085 cycles: 412514473 heartbeat IPC: 4 cumulative IPC: 4 (Simulation time: 11 hr 58 min 14 sec)
Heartbeat CPU 2 instructions: 1650000033 cycles: 412517089 heartbeat IPC: 4 cumulative IPC: 4 (Simulation time: 11 hr 58 min 14 sec)
Heartbeat CPU 3 instructions: 1660000085 cycles: 415014473 heartbeat IPC: 4 cumulative IPC: 4 (Simulation time: 12 hr 02 min 19 sec)
Heartbeat CPU 2 instructions: 1660000033 cycles: 415017089 heartbeat IPC: 4 cumulative IPC: 4 (Simulation time: 12 hr 02 min 19 sec)
Heartbeat CPU 3 instructions: 1670000085 cycles: 417514473 heartbeat IPC: 4 cumulative IPC: 4 (Simulation time: 12 hr 06 min 22 sec)
Heartbeat CPU 2 instructions: 1670000033 cycles: 417517089 heartbeat IPC: 4 cumulative IPC: 4 (Simulation time: 12 hr 06 min 22 sec)
*** Reached end of trace: (2, "traces/ocean_8t/ocean2.champsimtrace")
*** Reached end of trace: (3, "traces/ocean_8t/ocean3.champsimtrace")
Heartbeat CPU 3 instructions: 1680000088 cycles: 420014490 heartbeat IPC: 4 cumulative IPC: 4 (Simulation time: 12 hr 10 min 31 sec)
Heartbeat CPU 2 instructions: 1680000034 cycles: 420017112 heartbeat IPC: 4 cumulative IPC: 4 (Simulation time: 12 hr 10 min 31 sec)
Heartbeat CPU 3 instructions: 1690000088 cycles: 422514490 heartbeat IPC: 4 cumulative IPC: 4 (Simulation time: 12 hr 14 min 47 sec)
Heartbeat CPU 2 instructions: 1690000034 cycles: 422517112 heartbeat IPC: 4 cumulative IPC: 4 (Simulation time: 12 hr 14 min 47 sec)
Simulation finished CPU 1 instructions: 100000000 cycles: 316894399 cumulative IPC: 0.3156 (Simulation time: 12 hr 16 min 32 sec)
Heartbeat CPU 3 instructions: 1700000088 cycles: 425014490 heartbeat IPC: 4 cumulative IPC: 4 (Simulation time: 12 hr 19 min 02 sec)
Heartbeat CPU 2 instructions: 1700000034 cycles: 425017112 heartbeat IPC: 4 cumulative IPC: 4 (Simulation time: 12 hr 19 min 02 sec)
Heartbeat CPU 3 instructions: 1710000088 cycles: 427514490 heartbeat IPC: 4 cumulative IPC: 4 (Simulation time: 12 hr 23 min 21 sec)
Heartbeat CPU 2 instructions: 1710000034 cycles: 427517112 heartbeat IPC: 4 cumulative IPC: 4 (Simulation time: 12 hr 23 min 21 sec)
*** Reached end of trace: (2, "traces/ocean_8t/ocean2.champsimtrace")
Heartbeat CPU 3 instructions: 1720000088 cycles: 430014490 heartbeat IPC: 4 cumulative IPC: 4 (Simulation time: 12 hr 27 min 35 sec)
Heartbeat CPU 2 instructions: 1720000035 cycles: 430017135 heartbeat IPC: 4 cumulative IPC: 4 (Simulation time: 12 hr 27 min 35 sec)
*** Reached end of trace: (3, "traces/ocean_8t/ocean3.champsimtrace")
Heartbeat CPU 3 instructions: 1730000091 cycles: 432514507 heartbeat IPC: 4 cumulative IPC: 4 (Simulation time: 12 hr 31 min 47 sec)
Heartbeat CPU 2 instructions: 1730000035 cycles: 432517135 heartbeat IPC: 4 cumulative IPC: 4 (Simulation time: 12 hr 31 min 47 sec)
Heartbeat CPU 3 instructions: 1740000091 cycles: 435014507 heartbeat IPC: 4 cumulative IPC: 4 (Simulation time: 12 hr 36 min 02 sec)
Heartbeat CPU 2 instructions: 1740000035 cycles: 435017135 heartbeat IPC: 4 cumulative IPC: 4 (Simulation time: 12 hr 36 min 02 sec)
Heartbeat CPU 3 instructions: 1750000091 cycles: 437514507 heartbeat IPC: 4 cumulative IPC: 4 (Simulation time: 12 hr 40 min 10 sec)
Heartbeat CPU 2 instructions: 1750000035 cycles: 437517135 heartbeat IPC: 4 cumulative IPC: 4 (Simulation time: 12 hr 40 min 10 sec)
Heartbeat CPU 0 instructions: 110000009 cycles: 439286436 heartbeat IPC: 0.1976 cumulative IPC: 0.1804 (Simulation time: 12 hr 43 min 03 sec)
Heartbeat CPU 3 instructions: 1760000091 cycles: 440014507 heartbeat IPC: 4 cumulative IPC: 4 (Simulation time: 12 hr 44 min 16 sec)
Heartbeat CPU 2 instructions: 1760000035 cycles: 440017135 heartbeat IPC: 4 cumulative IPC: 4 (Simulation time: 12 hr 44 min 16 sec)
*** Reached end of trace: (2, "traces/ocean_8t/ocean2.champsimtrace")
Heartbeat CPU 3 instructions: 1770000091 cycles: 442514507 heartbeat IPC: 4 cumulative IPC: 4 (Simulation time: 12 hr 48 min 24 sec)
Heartbeat CPU 2 instructions: 1770000036 cycles: 442517158 heartbeat IPC: 4 cumulative IPC: 4 (Simulation time: 12 hr 48 min 24 sec)
*** Reached end of trace: (3, "traces/ocean_8t/ocean3.champsimtrace")
Heartbeat CPU 1 instructions: 350000041 cycles: 443113812 heartbeat IPC: 0.2493 cumulative IPC: 0.31 (Simulation time: 12 hr 49 min 24 sec)
Heartbeat CPU 3 instructions: 1780000094 cycles: 445014524 heartbeat IPC: 4 cumulative IPC: 4 (Simulation time: 12 hr 52 min 34 sec)
Heartbeat CPU 2 instructions: 1780000036 cycles: 445017158 heartbeat IPC: 4 cumulative IPC: 4 (Simulation time: 12 hr 52 min 34 sec)
Heartbeat CPU 3 instructions: 1790000094 cycles: 447514524 heartbeat IPC: 4 cumulative IPC: 4 (Simulation time: 12 hr 56 min 49 sec)
Heartbeat CPU 2 instructions: 1790000036 cycles: 447517158 heartbeat IPC: 4 cumulative IPC: 4 (Simulation time: 12 hr 56 min 49 sec)
Heartbeat CPU 3 instructions: 1800000094 cycles: 450014524 heartbeat IPC: 4 cumulative IPC: 4 (Simulation time: 13 hr 00 min 58 sec)
Heartbeat CPU 2 instructions: 1800000036 cycles: 450017158 heartbeat IPC: 4 cumulative IPC: 4 (Simulation time: 13 hr 00 min 58 sec)
*** Reached end of trace: (2, "traces/ocean_8t/ocean2.champsimtrace")
Heartbeat CPU 3 instructions: 1810000094 cycles: 452514524 heartbeat IPC: 4 cumulative IPC: 4 (Simulation time: 13 hr 05 min 03 sec)
Heartbeat CPU 2 instructions: 1810000037 cycles: 452517181 heartbeat IPC: 4 cumulative IPC: 4 (Simulation time: 13 hr 05 min 03 sec)
*** Reached end of trace: (3, "traces/ocean_8t/ocean3.champsimtrace")
Heartbeat CPU 3 instructions: 1820000097 cycles: 455014541 heartbeat IPC: 4 cumulative IPC: 4 (Simulation time: 13 hr 09 min 19 sec)
Heartbeat CPU 2 instructions: 1820000037 cycles: 455017181 heartbeat IPC: 4 cumulative IPC: 4 (Simulation time: 13 hr 09 min 19 sec)
Heartbeat CPU 3 instructions: 1830000097 cycles: 457514541 heartbeat IPC: 4 cumulative IPC: 4 (Simulation time: 13 hr 13 min 34 sec)
Heartbeat CPU 2 instructions: 1830000037 cycles: 457517181 heartbeat IPC: 4 cumulative IPC: 4 (Simulation time: 13 hr 13 min 34 sec)
Heartbeat CPU 3 instructions: 1840000097 cycles: 460014541 heartbeat IPC: 4 cumulative IPC: 4 (Simulation time: 13 hr 17 min 46 sec)
Heartbeat CPU 2 instructions: 1840000037 cycles: 460017181 heartbeat IPC: 4 cumulative IPC: 4 (Simulation time: 13 hr 17 min 46 sec)
Heartbeat CPU 3 instructions: 1850000097 cycles: 462514541 heartbeat IPC: 4 cumulative IPC: 4 (Simulation time: 13 hr 21 min 50 sec)
Heartbeat CPU 2 instructions: 1850000037 cycles: 462517181 heartbeat IPC: 4 cumulative IPC: 4 (Simulation time: 13 hr 21 min 51 sec)
*** Reached end of trace: (2, "traces/ocean_8t/ocean2.champsimtrace")
Heartbeat CPU 3 instructions: 1860000097 cycles: 465014541 heartbeat IPC: 4 cumulative IPC: 4 (Simulation time: 13 hr 26 min 03 sec)
Heartbeat CPU 2 instructions: 1860000038 cycles: 465017204 heartbeat IPC: 4 cumulative IPC: 4 (Simulation time: 13 hr 26 min 03 sec)
*** Reached end of trace: (3, "traces/ocean_8t/ocean3.champsimtrace")
Heartbeat CPU 3 instructions: 1870000100 cycles: 467514558 heartbeat IPC: 4 cumulative IPC: 4 (Simulation time: 13 hr 30 min 21 sec)
Heartbeat CPU 2 instructions: 1870000038 cycles: 467517204 heartbeat IPC: 4 cumulative IPC: 4 (Simulation time: 13 hr 30 min 21 sec)
Heartbeat CPU 3 instructions: 1880000100 cycles: 470014558 heartbeat IPC: 4 cumulative IPC: 4 (Simulation time: 13 hr 34 min 36 sec)
Heartbeat CPU 2 instructions: 1880000038 cycles: 470017204 heartbeat IPC: 4 cumulative IPC: 4 (Simulation time: 13 hr 34 min 36 sec)
Heartbeat CPU 3 instructions: 1890000100 cycles: 472514558 heartbeat IPC: 4 cumulative IPC: 4 (Simulation time: 13 hr 38 min 44 sec)
Heartbeat CPU 2 instructions: 1890000038 cycles: 472517204 heartbeat IPC: 4 cumulative IPC: 4 (Simulation time: 13 hr 38 min 44 sec)
*** Reached end of trace: (2, "traces/ocean_8t/ocean2.champsimtrace")
Heartbeat CPU 3 instructions: 1900000100 cycles: 475014558 heartbeat IPC: 4 cumulative IPC: 4 (Simulation time: 13 hr 42 min 47 sec)
Heartbeat CPU 2 instructions: 1900000039 cycles: 475017227 heartbeat IPC: 4 cumulative IPC: 4 (Simulation time: 13 hr 42 min 47 sec)
*** Reached end of trace: (3, "traces/ocean_8t/ocean3.champsimtrace")
Heartbeat CPU 3 instructions: 1910000103 cycles: 477514575 heartbeat IPC: 4 cumulative IPC: 4 (Simulation time: 13 hr 46 min 52 sec)
Heartbeat CPU 2 instructions: 1910000039 cycles: 477517227 heartbeat IPC: 4 cumulative IPC: 4 (Simulation time: 13 hr 46 min 52 sec)
Heartbeat CPU 1 instructions: 360000042 cycles: 478566931 heartbeat IPC: 0.2821 cumulative IPC: 0.3073 (Simulation time: 13 hr 48 min 36 sec)
Heartbeat CPU 3 instructions: 1920000103 cycles: 480014575 heartbeat IPC: 4 cumulative IPC: 4 (Simulation time: 13 hr 50 min 57 sec)
Heartbeat CPU 2 instructions: 1920000039 cycles: 480017227 heartbeat IPC: 4 cumulative IPC: 4 (Simulation time: 13 hr 50 min 57 sec)
Heartbeat CPU 3 instructions: 1930000103 cycles: 482514575 heartbeat IPC: 4 cumulative IPC: 4 (Simulation time: 13 hr 55 min 06 sec)
Heartbeat CPU 2 instructions: 1930000039 cycles: 482517227 heartbeat IPC: 4 cumulative IPC: 4 (Simulation time: 13 hr 55 min 06 sec)
Heartbeat CPU 3 instructions: 1940000103 cycles: 485014575 heartbeat IPC: 4 cumulative IPC: 4 (Simulation time: 13 hr 59 min 12 sec)
Heartbeat CPU 2 instructions: 1940000039 cycles: 485017227 heartbeat IPC: 4 cumulative IPC: 4 (Simulation time: 13 hr 59 min 13 sec)
*** Reached end of trace: (2, "traces/ocean_8t/ocean2.champsimtrace")
Heartbeat CPU 3 instructions: 1950000103 cycles: 487514575 heartbeat IPC: 4 cumulative IPC: 4 (Simulation time: 14 hr 03 min 25 sec)
Heartbeat CPU 2 instructions: 1950000040 cycles: 487517250 heartbeat IPC: 4 cumulative IPC: 4 (Simulation time: 14 hr 03 min 25 sec)
*** Reached end of trace: (3, "traces/ocean_8t/ocean3.champsimtrace")
Heartbeat CPU 3 instructions: 1960000106 cycles: 490014592 heartbeat IPC: 4 cumulative IPC: 4 (Simulation time: 14 hr 07 min 33 sec)
Heartbeat CPU 2 instructions: 1960000040 cycles: 490017250 heartbeat IPC: 4 cumulative IPC: 4 (Simulation time: 14 hr 07 min 33 sec)
*** Reached end of trace: (1, "traces/ocean_8t/ocean1.champsimtrace")
Heartbeat CPU 3 instructions: 1970000106 cycles: 492514592 heartbeat IPC: 4 cumulative IPC: 4 (Simulation time: 14 hr 11 min 41 sec)
Heartbeat CPU 2 instructions: 1970000040 cycles: 492517250 heartbeat IPC: 4 cumulative IPC: 4 (Simulation time: 14 hr 11 min 42 sec)
Heartbeat CPU 3 instructions: 1980000106 cycles: 495014592 heartbeat IPC: 4 cumulative IPC: 4 (Simulation time: 14 hr 16 min 04 sec)
Heartbeat CPU 2 instructions: 1980000040 cycles: 495017250 heartbeat IPC: 4 cumulative IPC: 4 (Simulation time: 14 hr 16 min 04 sec)
*** Reached end of trace: (2, "traces/ocean_8t/ocean2.champsimtrace")
Heartbeat CPU 3 instructions: 1990000106 cycles: 497514592 heartbeat IPC: 4 cumulative IPC: 4 (Simulation time: 14 hr 20 min 24 sec)
Heartbeat CPU 2 instructions: 1990000041 cycles: 497517273 heartbeat IPC: 4 cumulative IPC: 4 (Simulation time: 14 hr 20 min 24 sec)
*** Reached end of trace: (3, "traces/ocean_8t/ocean3.champsimtrace")
Heartbeat CPU 3 instructions: 2000000109 cycles: 500014609 heartbeat IPC: 4 cumulative IPC: 4 (Simulation time: 14 hr 24 min 40 sec)
Heartbeat CPU 2 instructions: 2000000041 cycles: 500017273 heartbeat IPC: 4 cumulative IPC: 4 (Simulation time: 14 hr 24 min 41 sec)
Heartbeat CPU 1 instructions: 370000044 cycles: 501002253 heartbeat IPC: 0.4457 cumulative IPC: 0.3152 (Simulation time: 14 hr 26 min 23 sec)
Heartbeat CPU 3 instructions: 2010000109 cycles: 502514609 heartbeat IPC: 4 cumulative IPC: 4 (Simulation time: 14 hr 28 min 59 sec)
Heartbeat CPU 2 instructions: 2010000041 cycles: 502517273 heartbeat IPC: 4 cumulative IPC: 4 (Simulation time: 14 hr 28 min 59 sec)
Heartbeat CPU 3 instructions: 2020000109 cycles: 505014609 heartbeat IPC: 4 cumulative IPC: 4 (Simulation time: 14 hr 33 min 19 sec)
Heartbeat CPU 2 instructions: 2020000041 cycles: 505017273 heartbeat IPC: 4 cumulative IPC: 4 (Simulation time: 14 hr 33 min 19 sec)
Heartbeat CPU 3 instructions: 2030000109 cycles: 507514609 heartbeat IPC: 4 cumulative IPC: 4 (Simulation time: 14 hr 37 min 27 sec)
Heartbeat CPU 2 instructions: 2030000041 cycles: 507517273 heartbeat IPC: 4 cumulative IPC: 4 (Simulation time: 14 hr 37 min 28 sec)
Heartbeat CPU 0 instructions: 120000011 cycles: 507557218 heartbeat IPC: 0.1465 cumulative IPC: 0.1746 (Simulation time: 14 hr 37 min 32 sec)
*** Reached end of trace: (2, "traces/ocean_8t/ocean2.champsimtrace")
Heartbeat CPU 3 instructions: 2040000109 cycles: 510014609 heartbeat IPC: 4 cumulative IPC: 4 (Simulation time: 14 hr 41 min 41 sec)
Heartbeat CPU 2 instructions: 2040000042 cycles: 510017296 heartbeat IPC: 4 cumulative IPC: 4 (Simulation time: 14 hr 41 min 42 sec)
*** Reached end of trace: (3, "traces/ocean_8t/ocean3.champsimtrace")
Heartbeat CPU 3 instructions: 2050000112 cycles: 512514626 heartbeat IPC: 4 cumulative IPC: 4 (Simulation time: 14 hr 45 min 50 sec)
Heartbeat CPU 2 instructions: 2050000042 cycles: 512517296 heartbeat IPC: 4 cumulative IPC: 4 (Simulation time: 14 hr 45 min 50 sec)
Heartbeat CPU 3 instructions: 2060000112 cycles: 515014626 heartbeat IPC: 4 cumulative IPC: 4 (Simulation time: 14 hr 49 min 59 sec)
Heartbeat CPU 2 instructions: 2060000042 cycles: 515017296 heartbeat IPC: 4 cumulative IPC: 4 (Simulation time: 14 hr 49 min 59 sec)
Heartbeat CPU 3 instructions: 2070000112 cycles: 517514626 heartbeat IPC: 4 cumulative IPC: 4 (Simulation time: 14 hr 54 min 13 sec)
Heartbeat CPU 2 instructions: 2070000042 cycles: 517517296 heartbeat IPC: 4 cumulative IPC: 4 (Simulation time: 14 hr 54 min 13 sec)
*** Reached end of trace: (2, "traces/ocean_8t/ocean2.champsimtrace")
Heartbeat CPU 3 instructions: 2080000112 cycles: 520014626 heartbeat IPC: 4 cumulative IPC: 4 (Simulation time: 14 hr 58 min 38 sec)
Heartbeat CPU 2 instructions: 2080000043 cycles: 520017319 heartbeat IPC: 4 cumulative IPC: 4 (Simulation time: 14 hr 58 min 38 sec)
*** Reached end of trace: (3, "traces/ocean_8t/ocean3.champsimtrace")
Heartbeat CPU 3 instructions: 2090000115 cycles: 522514643 heartbeat IPC: 4 cumulative IPC: 4 (Simulation time: 15 hr 02 min 53 sec)
Heartbeat CPU 2 instructions: 2090000043 cycles: 522517319 heartbeat IPC: 4 cumulative IPC: 4 (Simulation time: 15 hr 02 min 53 sec)
Heartbeat CPU 3 instructions: 2100000115 cycles: 525014643 heartbeat IPC: 4 cumulative IPC: 4 (Simulation time: 15 hr 07 min 00 sec)
Heartbeat CPU 2 instructions: 2100000043 cycles: 525017319 heartbeat IPC: 4 cumulative IPC: 4 (Simulation time: 15 hr 07 min 00 sec)
Heartbeat CPU 1 instructions: 380000044 cycles: 525330964 heartbeat IPC: 0.411 cumulative IPC: 0.3208 (Simulation time: 15 hr 07 min 30 sec)
Heartbeat CPU 3 instructions: 2110000115 cycles: 527514643 heartbeat IPC: 4 cumulative IPC: 4 (Simulation time: 15 hr 11 min 09 sec)
Heartbeat CPU 2 instructions: 2110000043 cycles: 527517319 heartbeat IPC: 4 cumulative IPC: 4 (Simulation time: 15 hr 11 min 10 sec)
Heartbeat CPU 3 instructions: 2120000115 cycles: 530014643 heartbeat IPC: 4 cumulative IPC: 4 (Simulation time: 15 hr 15 min 18 sec)
Heartbeat CPU 2 instructions: 2120000043 cycles: 530017319 heartbeat IPC: 4 cumulative IPC: 4 (Simulation time: 15 hr 15 min 18 sec)
*** Reached end of trace: (2, "traces/ocean_8t/ocean2.champsimtrace")
Heartbeat CPU 3 instructions: 2130000115 cycles: 532514643 heartbeat IPC: 4 cumulative IPC: 4 (Simulation time: 15 hr 19 min 21 sec)
Heartbeat CPU 2 instructions: 2130000044 cycles: 532517342 heartbeat IPC: 4 cumulative IPC: 4 (Simulation time: 15 hr 19 min 21 sec)
*** Reached end of trace: (3, "traces/ocean_8t/ocean3.champsimtrace")
Heartbeat CPU 3 instructions: 2140000118 cycles: 535014660 heartbeat IPC: 4 cumulative IPC: 4 (Simulation time: 15 hr 23 min 22 sec)
Heartbeat CPU 2 instructions: 2140000044 cycles: 535017342 heartbeat IPC: 4 cumulative IPC: 4 (Simulation time: 15 hr 23 min 22 sec)
Heartbeat CPU 3 instructions: 2150000118 cycles: 537514660 heartbeat IPC: 4 cumulative IPC: 4 (Simulation time: 15 hr 27 min 18 sec)
Heartbeat CPU 2 instructions: 2150000044 cycles: 537517342 heartbeat IPC: 4 cumulative IPC: 4 (Simulation time: 15 hr 27 min 18 sec)
Heartbeat CPU 3 instructions: 2160000118 cycles: 540014660 heartbeat IPC: 4 cumulative IPC: 4 (Simulation time: 15 hr 31 min 18 sec)
Heartbeat CPU 2 instructions: 2160000044 cycles: 540017342 heartbeat IPC: 4 cumulative IPC: 4 (Simulation time: 15 hr 31 min 18 sec)
*** Reached end of trace: (2, "traces/ocean_8t/ocean2.champsimtrace")
Heartbeat CPU 3 instructions: 2170000118 cycles: 542514660 heartbeat IPC: 4 cumulative IPC: 4 (Simulation time: 15 hr 35 min 18 sec)
Heartbeat CPU 2 instructions: 2170000045 cycles: 542517365 heartbeat IPC: 4 cumulative IPC: 4 (Simulation time: 15 hr 35 min 19 sec)
*** Reached end of trace: (3, "traces/ocean_8t/ocean3.champsimtrace")
Heartbeat CPU 3 instructions: 2180000121 cycles: 545014677 heartbeat IPC: 4 cumulative IPC: 4 (Simulation time: 15 hr 39 min 23 sec)
Heartbeat CPU 2 instructions: 2180000045 cycles: 545017365 heartbeat IPC: 4 cumulative IPC: 4 (Simulation time: 15 hr 39 min 23 sec)
Heartbeat CPU 3 instructions: 2190000121 cycles: 547514677 heartbeat IPC: 4 cumulative IPC: 4 (Simulation time: 15 hr 43 min 28 sec)
Heartbeat CPU 2 instructions: 2190000045 cycles: 547517365 heartbeat IPC: 4 cumulative IPC: 4 (Simulation time: 15 hr 43 min 28 sec)
Heartbeat CPU 3 instructions: 2200000121 cycles: 550014677 heartbeat IPC: 4 cumulative IPC: 4 (Simulation time: 15 hr 47 min 25 sec)
Heartbeat CPU 2 instructions: 2200000045 cycles: 550017365 heartbeat IPC: 4 cumulative IPC: 4 (Simulation time: 15 hr 47 min 26 sec)
Heartbeat CPU 3 instructions: 2210000121 cycles: 552514677 heartbeat IPC: 4 cumulative IPC: 4 (Simulation time: 15 hr 51 min 23 sec)
Heartbeat CPU 2 instructions: 2210000045 cycles: 552517365 heartbeat IPC: 4 cumulative IPC: 4 (Simulation time: 15 hr 51 min 23 sec)
*** Reached end of trace: (2, "traces/ocean_8t/ocean2.champsimtrace")
Heartbeat CPU 3 instructions: 2220000121 cycles: 555014677 heartbeat IPC: 4 cumulative IPC: 4 (Simulation time: 15 hr 55 min 25 sec)
Heartbeat CPU 2 instructions: 2220000046 cycles: 555017388 heartbeat IPC: 4 cumulative IPC: 4 (Simulation time: 15 hr 55 min 25 sec)
*** Reached end of trace: (3, "traces/ocean_8t/ocean3.champsimtrace")
Heartbeat CPU 3 instructions: 2230000124 cycles: 557514694 heartbeat IPC: 4 cumulative IPC: 4 (Simulation time: 15 hr 59 min 23 sec)
Heartbeat CPU 2 instructions: 2230000046 cycles: 557517388 heartbeat IPC: 4 cumulative IPC: 4 (Simulation time: 15 hr 59 min 23 sec)
Heartbeat CPU 3 instructions: 2240000124 cycles: 560014694 heartbeat IPC: 4 cumulative IPC: 4 (Simulation time: 16 hr 03 min 27 sec)
Heartbeat CPU 2 instructions: 2240000046 cycles: 560017388 heartbeat IPC: 4 cumulative IPC: 4 (Simulation time: 16 hr 03 min 27 sec)
Heartbeat CPU 3 instructions: 2250000124 cycles: 562514694 heartbeat IPC: 4 cumulative IPC: 4 (Simulation time: 16 hr 07 min 28 sec)
Heartbeat CPU 2 instructions: 2250000046 cycles: 562517388 heartbeat IPC: 4 cumulative IPC: 4 (Simulation time: 16 hr 07 min 28 sec)
Heartbeat CPU 1 instructions: 390000044 cycles: 562565437 heartbeat IPC: 0.2686 cumulative IPC: 0.3165 (Simulation time: 16 hr 07 min 33 sec)
*** Reached end of trace: (2, "traces/ocean_8t/ocean2.champsimtrace")
Heartbeat CPU 3 instructions: 2260000124 cycles: 565014694 heartbeat IPC: 4 cumulative IPC: 4 (Simulation time: 16 hr 11 min 34 sec)
Heartbeat CPU 2 instructions: 2260000047 cycles: 565017411 heartbeat IPC: 4 cumulative IPC: 4 (Simulation time: 16 hr 11 min 34 sec)
Heartbeat CPU 3 instructions: 2270000124 cycles: 567514694 heartbeat IPC: 4 cumulative IPC: 4 (Simulation time: 16 hr 15 min 37 sec)
Heartbeat CPU 2 instructions: 2270000047 cycles: 567517411 heartbeat IPC: 4 cumulative IPC: 4 (Simulation time: 16 hr 15 min 37 sec)
*** Reached end of trace: (3, "traces/ocean_8t/ocean3.champsimtrace")
Heartbeat CPU 3 instructions: 2280000127 cycles: 570014711 heartbeat IPC: 4 cumulative IPC: 4 (Simulation time: 16 hr 19 min 39 sec)
Heartbeat CPU 2 instructions: 2280000047 cycles: 570017411 heartbeat IPC: 4 cumulative IPC: 4 (Simulation time: 16 hr 19 min 40 sec)
Heartbeat CPU 0 instructions: 130000014 cycles: 570145432 heartbeat IPC: 0.1598 cumulative IPC: 0.1726 (Simulation time: 16 hr 19 min 53 sec)
Heartbeat CPU 3 instructions: 2290000127 cycles: 572514711 heartbeat IPC: 4 cumulative IPC: 4 (Simulation time: 16 hr 23 min 47 sec)
Heartbeat CPU 2 instructions: 2290000047 cycles: 572517411 heartbeat IPC: 4 cumulative IPC: 4 (Simulation time: 16 hr 23 min 47 sec)
Heartbeat CPU 3 instructions: 2300000127 cycles: 575014711 heartbeat IPC: 4 cumulative IPC: 4 (Simulation time: 16 hr 27 min 34 sec)
Heartbeat CPU 2 instructions: 2300000047 cycles: 575017411 heartbeat IPC: 4 cumulative IPC: 4 (Simulation time: 16 hr 27 min 34 sec)
*** Reached end of trace: (2, "traces/ocean_8t/ocean2.champsimtrace")
Heartbeat CPU 3 instructions: 2310000127 cycles: 577514711 heartbeat IPC: 4 cumulative IPC: 4 (Simulation time: 16 hr 31 min 15 sec)
Heartbeat CPU 2 instructions: 2310000048 cycles: 577517434 heartbeat IPC: 4 cumulative IPC: 4 (Simulation time: 16 hr 31 min 15 sec)
*** Reached end of trace: (3, "traces/ocean_8t/ocean3.champsimtrace")
Heartbeat CPU 3 instructions: 2320000130 cycles: 580014728 heartbeat IPC: 4 cumulative IPC: 4 (Simulation time: 16 hr 34 min 54 sec)
Heartbeat CPU 2 instructions: 2320000048 cycles: 580017434 heartbeat IPC: 4 cumulative IPC: 4 (Simulation time: 16 hr 34 min 55 sec)
Heartbeat CPU 3 instructions: 2330000130 cycles: 582514728 heartbeat IPC: 4 cumulative IPC: 4 (Simulation time: 16 hr 38 min 34 sec)
Heartbeat CPU 2 instructions: 2330000048 cycles: 582517434 heartbeat IPC: 4 cumulative IPC: 4 (Simulation time: 16 hr 38 min 35 sec)
Heartbeat CPU 3 instructions: 2340000130 cycles: 585014728 heartbeat IPC: 4 cumulative IPC: 4 (Simulation time: 16 hr 42 min 16 sec)
Heartbeat CPU 2 instructions: 2340000048 cycles: 585017434 heartbeat IPC: 4 cumulative IPC: 4 (Simulation time: 16 hr 42 min 16 sec)
*** Reached end of trace: (2, "traces/ocean_8t/ocean2.champsimtrace")
Heartbeat CPU 3 instructions: 2350000130 cycles: 587514728 heartbeat IPC: 4 cumulative IPC: 4 (Simulation time: 16 hr 46 min 01 sec)
Heartbeat CPU 2 instructions: 2350000049 cycles: 587517457 heartbeat IPC: 4 cumulative IPC: 4 (Simulation time: 16 hr 46 min 01 sec)
Heartbeat CPU 3 instructions: 2360000130 cycles: 590014728 heartbeat IPC: 4 cumulative IPC: 4 (Simulation time: 16 hr 49 min 51 sec)
Heartbeat CPU 2 instructions: 2360000049 cycles: 590017457 heartbeat IPC: 4 cumulative IPC: 4 (Simulation time: 16 hr 49 min 51 sec)
*** Reached end of trace: (3, "traces/ocean_8t/ocean3.champsimtrace")
Heartbeat CPU 3 instructions: 2370000133 cycles: 592514745 heartbeat IPC: 4 cumulative IPC: 4 (Simulation time: 16 hr 53 min 38 sec)
[...]
BRANCH_RETURN: 0


CPU 1 cumulative IPC: 0.3156 instructions: 100000000 cycles: 316894399
CPU 1 Branch Prediction Accuracy: -% MPKI: 0 Average ROB Occupancy at Mispredict: -
Branch type MPKI
BRANCH_DIRECT_JUMP: 0
BRANCH_INDIRECT: 0
BRANCH_CONDITIONAL: 0
BRANCH_DIRECT_CALL: 0
BRANCH_INDIRECT_CALL: 0
BRANCH_RETURN: 0


CPU 0 cumulative IPC: 0.1756 instructions: 100000001 cycles: 569457207
CPU 0 Branch Prediction Accuracy: -% MPKI: 0 Average ROB Occupancy at Mispredict: -
Branch type MPKI
BRANCH_DIRECT_JUMP: 0
BRANCH_INDIRECT: 0
BRANCH_CONDITIONAL: 0
BRANCH_DIRECT_CALL: 0
BRANCH_INDIRECT_CALL: 0
BRANCH_RETURN: 0

cpu3->cpu3_STLB TOTAL        ACCESS:        800 HIT:        800 MISS:          0 MSHR_MERGE:          0
cpu3->cpu3_STLB LOAD         ACCESS:        800 HIT:        800 MISS:          0 MSHR_MERGE:          0
cpu3->cpu3_STLB RFO          ACCESS:          0 HIT:          0 MISS:          0 MSHR_MERGE:          0
cpu3->cpu3_STLB PREFETCH     ACCESS:          0 HIT:          0 MISS:          0 MSHR_MERGE:          0
cpu3->cpu3_STLB WRITE        ACCESS:          0 HIT:          0 MISS:          0 MSHR_MERGE:          0
cpu3->cpu3_STLB TRANSLATION  ACCESS:          0 HIT:          0 MISS:          0 MSHR_MERGE:          0
cpu3->cpu3_STLB PREFETCH REQUESTED:          0 ISSUED:          0 USEFUL:          0 USELESS:          0
cpu3->cpu3_STLB AVERAGE MISS LATENCY: - cycles
cpu3_STLB COHERENCE INVALIDATIONS:          0
cpu3_STLB COHERENCE WRITE-HIT OTHER-SHARER EVENTS:          0
cpu3->cpu3_L2C TOTAL        ACCESS:      78545 HIT:      78545 MISS:          0 MSHR_MERGE:          0
cpu3->cpu3_L2C LOAD         ACCESS:      78545 HIT:      78545 MISS:          0 MSHR_MERGE:          0
cpu3->cpu3_L2C RFO          ACCESS:          0 HIT:          0 MISS:          0 MSHR_MERGE:          0
cpu3->cpu3_L2C PREFETCH     ACCESS:          0 HIT:          0 MISS:          0 MSHR_MERGE:          0
cpu3->cpu3_L2C WRITE        ACCESS:          0 HIT:          0 MISS:          0 MSHR_MERGE:          0
cpu3->cpu3_L2C TRANSLATION  ACCESS:          0 HIT:          0 MISS:          0 MSHR_MERGE:          0
cpu3->cpu3_L2C PREFETCH REQUESTED:          0 ISSUED:          0 USEFUL:          0 USELESS:          0
cpu3->cpu3_L2C AVERAGE MISS LATENCY: - cycles
cpu3_L2C COHERENCE INVALIDATIONS:          0
cpu3_L2C COHERENCE WRITE-HIT OTHER-SHARER EVENTS:          0
cpu3->cpu3_L1I TOTAL        ACCESS:  353135380 HIT:  353018368 MISS:     117012 MSHR_MERGE:      38467
cpu3->cpu3_L1I LOAD         ACCESS:  353135380 HIT:  353018368 MISS:     117012 MSHR_MERGE:      38467
cpu3->cpu3_L1I RFO          ACCESS:          0 HIT:          0 MISS:          0 MSHR_MERGE:          0
cpu3->cpu3_L1I PREFETCH     ACCESS:          0 HIT:          0 MISS:          0 MSHR_MERGE:          0
cpu3->cpu3_L1I WRITE        ACCESS:          0 HIT:          0 MISS:          0 MSHR_MERGE:          0
cpu3->cpu3_L1I TRANSLATION  ACCESS:          0 HIT:          0 MISS:          0 MSHR_MERGE:          0
cpu3->cpu3_L1I PREFETCH REQUESTED:          0 ISSUED:          0 USEFUL:          0 USELESS:          0
cpu3->cpu3_L1I AVERAGE MISS LATENCY: 7 cycles
cpu3_L1I COHERENCE INVALIDATIONS:          0
cpu3_L1I COHERENCE WRITE-HIT OTHER-SHARER EVENTS:          0
cpu3_L1D COHERENCE INVALIDATIONS:          0
cpu3_L1D COHERENCE WRITE-HIT OTHER-SHARER EVENTS:          0
cpu3->cpu3_ITLB TOTAL        ACCESS:  282662240 HIT:  282660690 MISS:       1550 MSHR_MERGE:        750
cpu3->cpu3_ITLB LOAD         ACCESS:  282662240 HIT:  282660690 MISS:       1550 MSHR_MERGE:        750
cpu3->cpu3_ITLB RFO          ACCESS:          0 HIT:          0 MISS:          0 MSHR_MERGE:          0
cpu3->cpu3_ITLB PREFETCH     ACCESS:          0 HIT:          0 MISS:          0 MSHR_MERGE:          0
cpu3->cpu3_ITLB WRITE        ACCESS:          0 HIT:          0 MISS:          0 MSHR_MERGE:          0
cpu3->cpu3_ITLB TRANSLATION  ACCESS:          0 HIT:          0 MISS:          0 MSHR_MERGE:          0
cpu3->cpu3_ITLB PREFETCH REQUESTED:          0 ISSUED:          0 USEFUL:          0 USELESS:          0
cpu3->cpu3_ITLB AVERAGE MISS LATENCY: 4 cycles
cpu3_ITLB COHERENCE INVALIDATIONS:          0
cpu3_ITLB COHERENCE WRITE-HIT OTHER-SHARER EVENTS:          0
cpu3_DTLB COHERENCE INVALIDATIONS:          0
cpu3_DTLB COHERENCE WRITE-HIT OTHER-SHARER EVENTS:          0
cpu2->cpu2_STLB TOTAL        ACCESS:        800 HIT:        800 MISS:          0 MSHR_MERGE:          0
cpu2->cpu2_STLB LOAD         ACCESS:        800 HIT:        800 MISS:          0 MSHR_MERGE:          0
cpu2->cpu2_STLB RFO          ACCESS:          0 HIT:          0 MISS:          0 MSHR_MERGE:          0
cpu2->cpu2_STLB PREFETCH     ACCESS:          0 HIT:          0 MISS:          0 MSHR_MERGE:          0
cpu2->cpu2_STLB WRITE        ACCESS:          0 HIT:          0 MISS:          0 MSHR_MERGE:          0
cpu2->cpu2_STLB TRANSLATION  ACCESS:          0 HIT:          0 MISS:          0 MSHR_MERGE:          0
cpu2->cpu2_STLB PREFETCH REQUESTED:          0 ISSUED:          0 USEFUL:          0 USELESS:          0
cpu2->cpu2_STLB AVERAGE MISS LATENCY: - cycles
cpu2_STLB COHERENCE INVALIDATIONS:          0
cpu2_STLB COHERENCE WRITE-HIT OTHER-SHARER EVENTS:          0
cpu2->cpu2_L2C TOTAL        ACCESS:      83320 HIT:      83320 MISS:          0 MSHR_MERGE:          0
cpu2->cpu2_L2C LOAD         ACCESS:      83320 HIT:      83320 MISS:          0 MSHR_MERGE:          0
cpu2->cpu2_L2C RFO          ACCESS:          0 HIT:          0 MISS:          0 MSHR_MERGE:          0
cpu2->cpu2_L2C PREFETCH     ACCESS:          0 HIT:          0 MISS:          0 MSHR_MERGE:          0
cpu2->cpu2_L2C WRITE        ACCESS:          0 HIT:          0 MISS:          0 MSHR_MERGE:          0
cpu2->cpu2_L2C TRANSLATION  ACCESS:          0 HIT:          0 MISS:          0 MSHR_MERGE:          0
cpu2->cpu2_L2C PREFETCH REQUESTED:          0 ISSUED:          0 USEFUL:          0 USELESS:          0
cpu2->cpu2_L2C AVERAGE MISS LATENCY: - cycles
cpu2_L2C COHERENCE INVALIDATIONS:          0
cpu2_L2C COHERENCE WRITE-HIT OTHER-SHARER EVENTS:          0
cpu2->cpu2_L1I TOTAL        ACCESS:  357933393 HIT:  357807308 MISS:     126085 MSHR_MERGE:      42765
cpu2->cpu2_L1I LOAD         ACCESS:  357933393 HIT:  357807308 MISS:     126085 MSHR_MERGE:      42765
cpu2->cpu2_L1I RFO          ACCESS:          0 HIT:          0 MISS:          0 MSHR_MERGE:          0
cpu2->cpu2_L1I PREFETCH     ACCESS:          0 HIT:          0 MISS:          0 MSHR_MERGE:          0
cpu2->cpu2_L1I WRITE        ACCESS:          0 HIT:          0 MISS:          0 MSHR_MERGE:          0
cpu2->cpu2_L1I TRANSLATION  ACCESS:          0 HIT:          0 MISS:          0 MSHR_MERGE:          0
cpu2->cpu2_L1I PREFETCH REQUESTED:          0 ISSUED:          0 USEFUL:          0 USELESS:          0
cpu2->cpu2_L1I AVERAGE MISS LATENCY: 7 cycles
cpu2_L1I COHERENCE INVALIDATIONS:          0
cpu2_L1I COHERENCE WRITE-HIT OTHER-SHARER EVENTS:          0
cpu2_L1D COHERENCE INVALIDATIONS:          0
cpu2_L1D COHERENCE WRITE-HIT OTHER-SHARER EVENTS:          0
cpu2->cpu2_ITLB TOTAL        ACCESS:  282811061 HIT:  282809611 MISS:       1450 MSHR_MERGE:        650
cpu2->cpu2_ITLB LOAD         ACCESS:  282811061 HIT:  282809611 MISS:       1450 MSHR_MERGE:        650
cpu2->cpu2_ITLB RFO          ACCESS:          0 HIT:          0 MISS:          0 MSHR_MERGE:          0
cpu2->cpu2_ITLB PREFETCH     ACCESS:          0 HIT:          0 MISS:          0 MSHR_MERGE:          0
cpu2->cpu2_ITLB WRITE        ACCESS:          0 HIT:          0 MISS:          0 MSHR_MERGE:          0
cpu2->cpu2_ITLB TRANSLATION  ACCESS:          0 HIT:          0 MISS:          0 MSHR_MERGE:          0
cpu2->cpu2_ITLB PREFETCH REQUESTED:          0 ISSUED:          0 USEFUL:          0 USELESS:          0
cpu2->cpu2_ITLB AVERAGE MISS LATENCY: 4 cycles
cpu2_ITLB COHERENCE INVALIDATIONS:          0
cpu2_ITLB COHERENCE WRITE-HIT OTHER-SHARER EVENTS:          0
cpu2_DTLB COHERENCE INVALIDATIONS:          0
cpu2_DTLB COHERENCE WRITE-HIT OTHER-SHARER EVENTS:          0
cpu1->cpu1_STLB TOTAL        ACCESS:     943069 HIT:     911093 MISS:      31976 MSHR_MERGE:          0
cpu1->cpu1_STLB LOAD         ACCESS:     943069 HIT:     911093 MISS:      31976 MSHR_MERGE:          0
cpu1->cpu1_STLB RFO          ACCESS:          0 HIT:          0 MISS:          0 MSHR_MERGE:          0
cpu1->cpu1_STLB PREFETCH     ACCESS:          0 HIT:          0 MISS:          0 MSHR_MERGE:          0
cpu1->cpu1_STLB WRITE        ACCESS:          0 HIT:          0 MISS:          0 MSHR_MERGE:          0
cpu1->cpu1_STLB TRANSLATION  ACCESS:          0 HIT:          0 MISS:          0 MSHR_MERGE:          0
cpu1->cpu1_STLB PREFETCH REQUESTED:          0 ISSUED:          0 USEFUL:          0 USELESS:          0
cpu1->cpu1_STLB AVERAGE MISS LATENCY: 497.8 cycles
cpu1_STLB COHERENCE INVALIDATIONS:          0
cpu1_STLB COHERENCE WRITE-HIT OTHER-SHARER EVENTS:          0
cpu1->cpu1_L2C TOTAL        ACCESS:   13410927 HIT:    5457670 MISS:    7953257 MSHR_MERGE:          0
cpu1->cpu1_L2C LOAD         ACCESS:   13361227 HIT:    5457670 MISS:    7903557 MSHR_MERGE:          0
cpu1->cpu1_L2C RFO          ACCESS:          0 HIT:          0 MISS:          0 MSHR_MERGE:          0
cpu1->cpu1_L2C PREFETCH     ACCESS:          0 HIT:          0 MISS:          0 MSHR_MERGE:          0
cpu1->cpu1_L2C WRITE        ACCESS:          0 HIT:          0 MISS:          0 MSHR_MERGE:          0
cpu1->cpu1_L2C TRANSLATION  ACCESS:      49700 HIT:          0 MISS:      49700 MSHR_MERGE:          0
cpu1->cpu1_L2C PREFETCH REQUESTED:          0 ISSUED:          0 USEFUL:          0 USELESS:          0
cpu1->cpu1_L2C AVERAGE MISS LATENCY: 200.8 cycles
cpu1_L2C COHERENCE INVALIDATIONS:          0
cpu1_L2C COHERENCE WRITE-HIT OTHER-SHARER EVENTS:          0
cpu1->cpu1_L1I TOTAL        ACCESS:   49512663 HIT:   34290027 MISS:   15222636 MSHR_MERGE:    1861409
cpu1->cpu1_L1I LOAD         ACCESS:   49512663 HIT:   34290027 MISS:   15222636 MSHR_MERGE:    1861409
cpu1->cpu1_L1I RFO          ACCESS:          0 HIT:          0 MISS:          0 MSHR_MERGE:          0
cpu1->cpu1_L1I PREFETCH     ACCESS:          0 HIT:          0 MISS:          0 MSHR_MERGE:          0
cpu1->cpu1_L1I WRITE        ACCESS:          0 HIT:          0 MISS:          0 MSHR_MERGE:          0
cpu1->cpu1_L1I TRANSLATION  ACCESS:          0 HIT:          0 MISS:          0 MSHR_MERGE:          0
cpu1->cpu1_L1I PREFETCH REQUESTED:          0 ISSUED:          0 USEFUL:          0 USELESS:          0
cpu1->cpu1_L1I AVERAGE MISS LATENCY: 126 cycles
cpu1_L1I COHERENCE INVALIDATIONS:          0
cpu1_L1I COHERENCE WRITE-HIT OTHER-SHARER EVENTS:          0
cpu1->cpu1_L1D TOTAL        ACCESS:      63964 HIT:      14264 MISS:      49700 MSHR_MERGE:          0
cpu1->cpu1_L1D LOAD         ACCESS:          0 HIT:          0 MISS:          0 MSHR_MERGE:          0
cpu1->cpu1_L1D RFO          ACCESS:          0 HIT:          0 MISS:          0 MSHR_MERGE:          0
cpu1->cpu1_L1D PREFETCH     ACCESS:          0 HIT:          0 MISS:          0 MSHR_MERGE:          0
cpu1->cpu1_L1D WRITE        ACCESS:          0 HIT:          0 MISS:          0 MSHR_MERGE:          0
cpu1->cpu1_L1D TRANSLATION  ACCESS:      63964 HIT:      14264 MISS:      49700 MSHR_MERGE:          0
cpu1->cpu1_L1D PREFETCH REQUESTED:          0 ISSUED:          0 USEFUL:          0 USELESS:          0
cpu1->cpu1_L1D AVERAGE MISS LATENCY: 312.8 cycles
cpu1_L1D COHERENCE INVALIDATIONS:          0
cpu1_L1D COHERENCE WRITE-HIT OTHER-SHARER EVENTS:          0
cpu1->cpu1_ITLB TOTAL        ACCESS:   48650916 HIT:   47666832 MISS:     984084 MSHR_MERGE:      41015
cpu1->cpu1_ITLB LOAD         ACCESS:   48650916 HIT:   47666832 MISS:     984084 MSHR_MERGE:      41015
cpu1->cpu1_ITLB RFO          ACCESS:          0 HIT:          0 MISS:          0 MSHR_MERGE:          0
cpu1->cpu1_ITLB PREFETCH     ACCESS:          0 HIT:          0 MISS:          0 MSHR_MERGE:          0
cpu1->cpu1_ITLB WRITE        ACCESS:          0 HIT:          0 MISS:          0 MSHR_MERGE:          0
cpu1->cpu1_ITLB TRANSLATION  ACCESS:          0 HIT:          0 MISS:          0 MSHR_MERGE:          0
cpu1->cpu1_ITLB PREFETCH REQUESTED:          0 ISSUED:          0 USEFUL:          0 USELESS:          0
cpu1->cpu1_ITLB AVERAGE MISS LATENCY: 20.91 cycles
cpu1_ITLB COHERENCE INVALIDATIONS:          0
cpu1_ITLB COHERENCE WRITE-HIT OTHER-SHARER EVENTS:          0
cpu1_DTLB COHERENCE INVALIDATIONS:          0
cpu1_DTLB COHERENCE WRITE-HIT OTHER-SHARER EVENTS:          0
cpu0->cpu0_STLB TOTAL        ACCESS:    4686898 HIT:    4539386 MISS:     147512 MSHR_MERGE:          0
cpu0->cpu0_STLB LOAD         ACCESS:    4686898 HIT:    4539386 MISS:     147512 MSHR_MERGE:          0
cpu0->cpu0_STLB RFO          ACCESS:          0 HIT:          0 MISS:          0 MSHR_MERGE:          0
cpu0->cpu0_STLB PREFETCH     ACCESS:          0 HIT:          0 MISS:          0 MSHR_MERGE:          0
cpu0->cpu0_STLB WRITE        ACCESS:          0 HIT:          0 MISS:          0 MSHR_MERGE:          0
cpu0->cpu0_STLB TRANSLATION  ACCESS:          0 HIT:          0 MISS:          0 MSHR_MERGE:          0
cpu0->cpu0_STLB PREFETCH REQUESTED:          0 ISSUED:          0 USEFUL:          0 USELESS:          0
cpu0->cpu0_STLB AVERAGE MISS LATENCY: 625.8 cycles
cpu0_STLB COHERENCE INVALIDATIONS:          0
cpu0_STLB COHERENCE WRITE-HIT OTHER-SHARER EVENTS:          0
cpu0->cpu0_L2C TOTAL        ACCESS:   32534058 HIT:   14854254 MISS:   17679804 MSHR_MERGE:          0
cpu0->cpu0_L2C LOAD         ACCESS:   21219317 HIT:    6731134 MISS:   14488183 MSHR_MERGE:          0
cpu0->cpu0_L2C RFO          ACCESS:    3463993 HIT:     505268 MISS:    2958725 MSHR_MERGE:          0
cpu0->cpu0_L2C PREFETCH     ACCESS:          0 HIT:          0 MISS:          0 MSHR_MERGE:          0
cpu0->cpu0_L2C WRITE        ACCESS:    7578653 HIT:    7578176 MISS:        477 MSHR_MERGE:          0
cpu0->cpu0_L2C TRANSLATION  ACCESS:     272095 HIT:      39676 MISS:     232419 MSHR_MERGE:          0
cpu0->cpu0_L2C PREFETCH REQUESTED:          0 ISSUED:          0 USEFUL:          0 USELESS:          0
cpu0->cpu0_L2C AVERAGE MISS LATENCY: 177.2 cycles
cpu0_L2C COHERENCE INVALIDATIONS:          0
cpu0_L2C COHERENCE WRITE-HIT OTHER-SHARER EVENTS:          0
cpu0->cpu0_L1I TOTAL        ACCESS:   30767771 HIT:   30755879 MISS:      11892 MSHR_MERGE:       5663
cpu0->cpu0_L1I LOAD         ACCESS:   30767771 HIT:   30755879 MISS:      11892 MSHR_MERGE:       5663
cpu0->cpu0_L1I RFO          ACCESS:          0 HIT:          0 MISS:          0 MSHR_MERGE:          0
cpu0->cpu0_L1I PREFETCH     ACCESS:          0 HIT:          0 MISS:          0 MSHR_MERGE:          0
cpu0->cpu0_L1I WRITE        ACCESS:          0 HIT:          0 MISS:          0 MSHR_MERGE:          0
cpu0->cpu0_L1I TRANSLATION  ACCESS:          0 HIT:          0 MISS:          0 MSHR_MERGE:          0
cpu0->cpu0_L1I PREFETCH REQUESTED:          0 ISSUED:          0 USEFUL:          0 USELESS:          0
cpu0->cpu0_L1I AVERAGE MISS LATENCY: 281.5 cycles
cpu0_L1I COHERENCE INVALIDATIONS:          0
cpu0_L1I COHERENCE WRITE-HIT OTHER-SHARER EVENTS:          0
cpu0->cpu0_L1D TOTAL        ACCESS:  103463424 HIT:   74958480 MISS:   28504944 MSHR_MERGE:    3553211
cpu0->cpu0_L1D LOAD         ACCESS:   44663609 HIT:   22518564 MISS:   22145045 MSHR_MERGE:     931372
cpu0->cpu0_L1D RFO          ACCESS:          0 HIT:          0 MISS:          0 MSHR_MERGE:          0
cpu0->cpu0_L1D PREFETCH     ACCESS:          0 HIT:          0 MISS:          0 MSHR_MERGE:          0
cpu0->cpu0_L1D WRITE        ACCESS:   58499619 HIT:   52417377 MISS:    6082242 MSHR_MERGE:    2616277
cpu0->cpu0_L1D TRANSLATION  ACCESS:     300196 HIT:      22539 MISS:     277657 MSHR_MERGE:       5562
cpu0->cpu0_L1D PREFETCH REQUESTED:          0 ISSUED:          0 USEFUL:          0 USELESS:          0
cpu0->cpu0_L1D AVERAGE MISS LATENCY: 133.4 cycles
cpu0_L1D COHERENCE INVALIDATIONS:          0
cpu0_L1D COHERENCE WRITE-HIT OTHER-SHARER EVENTS:          0
cpu0->cpu0_ITLB TOTAL        ACCESS:   28603438 HIT:   28602380 MISS:       1058 MSHR_MERGE:        709
cpu0->cpu0_ITLB LOAD         ACCESS:   28603438 HIT:   28602380 MISS:       1058 MSHR_MERGE:        709
cpu0->cpu0_ITLB RFO          ACCESS:          0 HIT:          0 MISS:          0 MSHR_MERGE:          0
cpu0->cpu0_ITLB PREFETCH     ACCESS:          0 HIT:          0 MISS:          0 MSHR_MERGE:          0
cpu0->cpu0_ITLB WRITE        ACCESS:          0 HIT:          0 MISS:          0 MSHR_MERGE:          0
cpu0->cpu0_ITLB TRANSLATION  ACCESS:          0 HIT:          0 MISS:          0 MSHR_MERGE:          0
cpu0->cpu0_ITLB PREFETCH REQUESTED:          0 ISSUED:          0 USEFUL:          0 USELESS:          0
cpu0->cpu0_ITLB AVERAGE MISS LATENCY: 498.3 cycles
cpu0_ITLB COHERENCE INVALIDATIONS:          0
cpu0_ITLB COHERENCE WRITE-HIT OTHER-SHARER EVENTS:          0
cpu0->cpu0_DTLB TOTAL        ACCESS:   99854262 HIT:   94963401 MISS:    4890861 MSHR_MERGE:     204312
cpu0->cpu0_DTLB LOAD         ACCESS:   99854262 HIT:   94963401 MISS:    4890861 MSHR_MERGE:     204312
cpu0->cpu0_DTLB RFO          ACCESS:          0 HIT:          0 MISS:          0 MSHR_MERGE:          0
cpu0->cpu0_DTLB PREFETCH     ACCESS:          0 HIT:          0 MISS:          0 MSHR_MERGE:          0
cpu0->cpu0_DTLB WRITE        ACCESS:          0 HIT:          0 MISS:          0 MSHR_MERGE:          0
cpu0->cpu0_DTLB TRANSLATION  ACCESS:          0 HIT:          0 MISS:          0 MSHR_MERGE:          0
cpu0->cpu0_DTLB PREFETCH REQUESTED:          0 ISSUED:          0 USEFUL:          0 USELESS:          0
cpu0->cpu0_DTLB AVERAGE MISS LATENCY: 23.69 cycles
cpu0_DTLB COHERENCE INVALIDATIONS:          0
cpu0_DTLB COHERENCE WRITE-HIT OTHER-SHARER EVENTS:          0
cpu0->LLC TOTAL        ACCESS:   24130313 HIT:   11228331 MISS:   12901982 MSHR_MERGE:        112
cpu0->LLC LOAD         ACCESS:   14488169 HIT:    7188695 MISS:    7299474 MSHR_MERGE:         93
cpu0->LLC RFO          ACCESS:    2958725 HIT:     857521 MISS:    2101204 MSHR_MERGE:         19
cpu0->LLC PREFETCH     ACCESS:          0 HIT:          0 MISS:          0 MSHR_MERGE:          0
cpu0->LLC WRITE        ACCESS:    6451000 HIT:    3182055 MISS:    3268945 MSHR_MERGE:          0
cpu0->LLC TRANSLATION  ACCESS:     232419 HIT:         60 MISS:     232359 MSHR_MERGE:          0
cpu0->LLC PREFETCH REQUESTED:          0 ISSUED:          0 USEFUL:          0 USELESS:          0
cpu0->LLC AVERAGE MISS LATENCY: 337.9 cycles
cpu1->LLC TOTAL        ACCESS:    7953257 HIT:    2867052 MISS:    5086205 MSHR_MERGE:        119
cpu1->LLC LOAD         ACCESS:    7903557 HIT:    2867052 MISS:    5036505 MSHR_MERGE:        119
cpu1->LLC RFO          ACCESS:          0 HIT:          0 MISS:          0 MSHR_MERGE:          0
cpu1->LLC PREFETCH     ACCESS:          0 HIT:          0 MISS:          0 MSHR_MERGE:          0
cpu1->LLC WRITE        ACCESS:          0 HIT:          0 MISS:          0 MSHR_MERGE:          0
cpu1->LLC TRANSLATION  ACCESS:      49700 HIT:          0 MISS:      49700 MSHR_MERGE:          0
cpu1->LLC PREFETCH REQUESTED:          0 ISSUED:          0 USEFUL:          0 USELESS:          0
cpu1->LLC AVERAGE MISS LATENCY: 857.1 cycles
LLC COHERENCE INVALIDATIONS:     780482
LLC COHERENCE WRITE-HIT OTHER-SHARER EVENTS:     780482
LLC SHARER HIST TOTAL:      287807216
LLC SHARER HIST[ 1]:      156284070  (54.302%)
LLC SHARER HIST[ 2]:      130773078  (45.438%)
LLC SHARER HIST[ 3]:          33063  ( 0.011%)
LLC SHARER HIST[ 4]:         717005  ( 0.249%)

DRAM Statistics

Channel 0 RQ ROW_BUFFER_HIT:     282870
  ROW_BUFFER_MISS:   14408731
  AVG DBUS CONGESTED CYCLE: 6.429
Channel 0 WQ ROW_BUFFER_HIT:     325142
  ROW_BUFFER_MISS:    2979289
  FULL:         29
Channel 0 REFRESHES ISSUED:      47455

VMEM ALIASED FILLS (cross-CPU shared-page hits): 90975
