[VMEM] WARNING: physical memory size is smaller than virtual memory size.

*** ChampSim Multicore Out-of-Order Simulator ***
Warmup Instructions: 50000000
Simulation Instructions: 100000000
Number of CPUs: 4
Page size: 4096

Off-chip DRAM Size: 16 GiB Channels: 1 Width: 64-bit Data Rate: 3205 MT/s
Heartbeat CPU 3 instructions: 10000003 cycles: 2511791 heartbeat IPC: 3.981 cumulative IPC: 3.981 (Simulation time: 00 hr 05 min 11 sec)
Heartbeat CPU 2 instructions: 10000003 cycles: 2512822 heartbeat IPC: 3.98 cumulative IPC: 3.98 (Simulation time: 00 hr 05 min 11 sec)
Heartbeat CPU 1 instructions: 10000001 cycles: 4697463 heartbeat IPC: 2.129 cumulative IPC: 2.129 (Simulation time: 00 hr 09 min 36 sec)
Heartbeat CPU 3 instructions: 20000004 cycles: 5012011 heartbeat IPC: 4 cumulative IPC: 3.99 (Simulation time: 00 hr 10 min 13 sec)
Heartbeat CPU 2 instructions: 20000003 cycles: 5013661 heartbeat IPC: 3.999 cumulative IPC: 3.989 (Simulation time: 00 hr 10 min 14 sec)
Heartbeat CPU 3 instructions: 30000004 cycles: 7512011 heartbeat IPC: 4 cumulative IPC: 3.994 (Simulation time: 00 hr 15 min 14 sec)
Heartbeat CPU 2 instructions: 30000003 cycles: 7513661 heartbeat IPC: 4 cumulative IPC: 3.993 (Simulation time: 00 hr 15 min 14 sec)
Heartbeat CPU 1 instructions: 20000001 cycles: 9269182 heartbeat IPC: 2.187 cumulative IPC: 2.158 (Simulation time: 00 hr 18 min 46 sec)
Heartbeat CPU 3 instructions: 40000004 cycles: 10012011 heartbeat IPC: 4 cumulative IPC: 3.995 (Simulation time: 00 hr 20 min 18 sec)
Heartbeat CPU 2 instructions: 40000003 cycles: 10013661 heartbeat IPC: 4 cumulative IPC: 3.995 (Simulation time: 00 hr 20 min 18 sec)
*** Reached end of trace: (2, "traces/ocean_8t/ocean2.champsimtrace")
*** Reached end of trace: (3, "traces/ocean_8t/ocean3.champsimtrace")
Warmup finished CPU 3 instructions: 50000002 cycles: 12514015 cumulative IPC: 3.996 (Simulation time: 00 hr 25 min 26 sec)
Heartbeat CPU 3 instructions: 50000006 cycles: 12514016 heartbeat IPC: 3.997 cumulative IPC: 3.996 (Simulation time: 00 hr 25 min 26 sec)
Warmup finished CPU 2 instructions: 50000002 cycles: 12516467 cumulative IPC: 3.995 (Simulation time: 00 hr 25 min 26 sec)
Heartbeat CPU 2 instructions: 50000006 cycles: 12516468 heartbeat IPC: 3.996 cumulative IPC: 3.995 (Simulation time: 00 hr 25 min 26 sec)
Heartbeat CPU 1 instructions: 30000002 cycles: 14616794 heartbeat IPC: 1.87 cumulative IPC: 2.052 (Simulation time: 00 hr 29 min 42 sec)
Heartbeat CPU 3 instructions: 60000006 cycles: 15014016 heartbeat IPC: 4 cumulative IPC: 3.996 (Simulation time: 00 hr 30 min 30 sec)
Heartbeat CPU 2 instructions: 60000006 cycles: 15016468 heartbeat IPC: 4 cumulative IPC: 3.996 (Simulation time: 00 hr 30 min 30 sec)
Heartbeat CPU 3 instructions: 70000006 cycles: 17514016 heartbeat IPC: 4 cumulative IPC: 3.997 (Simulation time: 00 hr 35 min 34 sec)
Heartbeat CPU 2 instructions: 70000006 cycles: 17516468 heartbeat IPC: 4 cumulative IPC: 3.996 (Simulation time: 00 hr 35 min 34 sec)
Heartbeat CPU 1 instructions: 40000004 cycles: 18858956 heartbeat IPC: 2.357 cumulative IPC: 2.121 (Simulation time: 00 hr 38 min 20 sec)
Heartbeat CPU 3 instructions: 80000006 cycles: 20014016 heartbeat IPC: 4 cumulative IPC: 3.997 (Simulation time: 00 hr 40 min 44 sec)
Heartbeat CPU 2 instructions: 80000006 cycles: 20016468 heartbeat IPC: 4 cumulative IPC: 3.997 (Simulation time: 00 hr 40 min 45 sec)
*** Reached end of trace: (1, "traces/ocean_8t/ocean1.champsimtrace")
Heartbeat CPU 0 instructions: 10000000 cycles: 20895183 heartbeat IPC: 0.4786 cumulative IPC: 0.4786 (Simulation time: 00 hr 42 min 36 sec)
Heartbeat CPU 3 instructions: 90000006 cycles: 22514016 heartbeat IPC: 4 cumulative IPC: 3.998 (Simulation time: 00 hr 45 min 57 sec)
Heartbeat CPU 2 instructions: 90000006 cycles: 22516468 heartbeat IPC: 4 cumulative IPC: 3.997 (Simulation time: 00 hr 45 min 57 sec)
*** Reached end of trace: (2, "traces/ocean_8t/ocean2.champsimtrace")
*** Reached end of trace: (3, "traces/ocean_8t/ocean3.champsimtrace")
Warmup finished CPU 1 instructions: 50000002 cycles: 22727734 cumulative IPC: 2.2 (Simulation time: 00 hr 46 min 23 sec)
Heartbeat CPU 1 instructions: 50000006 cycles: 22727735 heartbeat IPC: 2.585 cumulative IPC: 2.2 (Simulation time: 00 hr 46 min 23 sec)
Heartbeat CPU 3 instructions: 100000006 cycles: 25014016 heartbeat IPC: 4 cumulative IPC: 3.998 (Simulation time: 00 hr 50 min 57 sec)
Heartbeat CPU 2 instructions: 100000006 cycles: 25016468 heartbeat IPC: 4 cumulative IPC: 3.997 (Simulation time: 00 hr 50 min 57 sec)
Heartbeat CPU 1 instructions: 60000009 cycles: 26825191 heartbeat IPC: 2.441 cumulative IPC: 2.237 (Simulation time: 00 hr 54 min 38 sec)
Heartbeat CPU 3 instructions: 110000006 cycles: 27514016 heartbeat IPC: 4 cumulative IPC: 3.998 (Simulation time: 00 hr 56 min 03 sec)
Heartbeat CPU 2 instructions: 110000006 cycles: 27516468 heartbeat IPC: 4 cumulative IPC: 3.998 (Simulation time: 00 hr 56 min 03 sec)
Heartbeat CPU 3 instructions: 120000006 cycles: 30014016 heartbeat IPC: 4 cumulative IPC: 3.998 (Simulation time: 01 hr 01 min 10 sec)
Heartbeat CPU 2 instructions: 120000006 cycles: 30016468 heartbeat IPC: 4 cumulative IPC: 3.998 (Simulation time: 01 hr 01 min 10 sec)
Heartbeat CPU 1 instructions: 70000009 cycles: 30997281 heartbeat IPC: 2.397 cumulative IPC: 2.258 (Simulation time: 01 hr 03 min 09 sec)
Heartbeat CPU 3 instructions: 130000006 cycles: 32514016 heartbeat IPC: 4 cumulative IPC: 3.998 (Simulation time: 01 hr 06 min 12 sec)
Heartbeat CPU 2 instructions: 130000006 cycles: 32516468 heartbeat IPC: 4 cumulative IPC: 3.998 (Simulation time: 01 hr 06 min 13 sec)
*** Reached end of trace: (2, "traces/ocean_8t/ocean2.champsimtrace")
*** Reached end of trace: (3, "traces/ocean_8t/ocean3.champsimtrace")
Heartbeat CPU 3 instructions: 140000006 cycles: 35014016 heartbeat IPC: 4 cumulative IPC: 3.998 (Simulation time: 01 hr 11 min 13 sec)
Heartbeat CPU 2 instructions: 140000006 cycles: 35016468 heartbeat IPC: 4 cumulative IPC: 3.998 (Simulation time: 01 hr 11 min 14 sec)
Heartbeat CPU 1 instructions: 80000009 cycles: 36557871 heartbeat IPC: 1.798 cumulative IPC: 2.188 (Simulation time: 01 hr 14 min 20 sec)
Heartbeat CPU 3 instructions: 150000006 cycles: 37514016 heartbeat IPC: 4 cumulative IPC: 3.999 (Simulation time: 01 hr 16 min 16 sec)
Heartbeat CPU 2 instructions: 150000006 cycles: 37516468 heartbeat IPC: 4 cumulative IPC: 3.998 (Simulation time: 01 hr 16 min 16 sec)
Heartbeat CPU 1 instructions: 90000012 cycles: 39985979 heartbeat IPC: 2.917 cumulative IPC: 2.251 (Simulation time: 01 hr 21 min 18 sec)
Heartbeat CPU 3 instructions: 160000006 cycles: 40014016 heartbeat IPC: 4 cumulative IPC: 3.999 (Simulation time: 01 hr 21 min 21 sec)
Heartbeat CPU 2 instructions: 160000006 cycles: 40016468 heartbeat IPC: 4 cumulative IPC: 3.998 (Simulation time: 01 hr 21 min 21 sec)
*** Reached end of trace: (1, "traces/ocean_8t/ocean1.champsimtrace")
Heartbeat CPU 0 instructions: 20000003 cycles: 42215062 heartbeat IPC: 0.469 cumulative IPC: 0.4738 (Simulation time: 01 hr 25 min 54 sec)
Heartbeat CPU 3 instructions: 170000006 cycles: 42514016 heartbeat IPC: 4 cumulative IPC: 3.999 (Simulation time: 01 hr 26 min 33 sec)
Heartbeat CPU 2 instructions: 170000006 cycles: 42516468 heartbeat IPC: 4 cumulative IPC: 3.998 (Simulation time: 01 hr 26 min 33 sec)
Heartbeat CPU 1 instructions: 100000013 cycles: 44070391 heartbeat IPC: 2.448 cumulative IPC: 2.269 (Simulation time: 01 hr 29 min 44 sec)
Heartbeat CPU 3 instructions: 180000006 cycles: 45014016 heartbeat IPC: 4 cumulative IPC: 3.999 (Simulation time: 01 hr 31 min 40 sec)
Heartbeat CPU 2 instructions: 180000006 cycles: 45016468 heartbeat IPC: 4 cumulative IPC: 3.999 (Simulation time: 01 hr 31 min 40 sec)
*** Reached end of trace: (2, "traces/ocean_8t/ocean2.champsimtrace")
*** Reached end of trace: (3, "traces/ocean_8t/ocean3.champsimtrace")
Heartbeat CPU 3 instructions: 190000006 cycles: 47514016 heartbeat IPC: 4 cumulative IPC: 3.999 (Simulation time: 01 hr 36 min 37 sec)
Heartbeat CPU 2 instructions: 190000006 cycles: 47516468 heartbeat IPC: 4 cumulative IPC: 3.999 (Simulation time: 01 hr 36 min 37 sec)
Heartbeat CPU 1 instructions: 110000014 cycles: 48173101 heartbeat IPC: 2.437 cumulative IPC: 2.283 (Simulation time: 01 hr 37 min 56 sec)
Heartbeat CPU 3 instructions: 200000006 cycles: 50014016 heartbeat IPC: 4 cumulative IPC: 3.999 (Simulation time: 01 hr 41 min 49 sec)
Heartbeat CPU 2 instructions: 200000006 cycles: 50016468 heartbeat IPC: 4 cumulative IPC: 3.999 (Simulation time: 01 hr 41 min 49 sec)
Heartbeat CPU 3 instructions: 210000006 cycles: 52514016 heartbeat IPC: 4 cumulative IPC: 3.999 (Simulation time: 01 hr 46 min 51 sec)
Heartbeat CPU 2 instructions: 210000006 cycles: 52516468 heartbeat IPC: 4 cumulative IPC: 3.999 (Simulation time: 01 hr 46 min 52 sec)
Heartbeat CPU 1 instructions: 120000014 cycles: 53104046 heartbeat IPC: 2.028 cumulative IPC: 2.26 (Simulation time: 01 hr 47 min 55 sec)
Heartbeat CPU 3 instructions: 220000006 cycles: 55014016 heartbeat IPC: 4 cumulative IPC: 3.999 (Simulation time: 01 hr 51 min 24 sec)
Heartbeat CPU 2 instructions: 220000006 cycles: 55016468 heartbeat IPC: 4 cumulative IPC: 3.999 (Simulation time: 01 hr 51 min 24 sec)
*** Reached end of trace: (2, "traces/ocean_8t/ocean2.champsimtrace")
*** Reached end of trace: (3, "traces/ocean_8t/ocean3.champsimtrace")
Heartbeat CPU 3 instructions: 230000006 cycles: 57514016 heartbeat IPC: 4 cumulative IPC: 3.999 (Simulation time: 01 hr 56 min 06 sec)
Heartbeat CPU 2 instructions: 230000006 cycles: 57516468 heartbeat IPC: 4 cumulative IPC: 3.999 (Simulation time: 01 hr 56 min 06 sec)
Heartbeat CPU 1 instructions: 130000015 cycles: 57590708 heartbeat IPC: 2.229 cumulative IPC: 2.257 (Simulation time: 01 hr 56 min 14 sec)
*** Reached end of trace: (1, "traces/ocean_8t/ocean1.champsimtrace")
Heartbeat CPU 3 instructions: 240000006 cycles: 60014016 heartbeat IPC: 4 cumulative IPC: 3.999 (Simulation time: 02 hr 00 min 28 sec)
Heartbeat CPU 2 instructions: 240000006 cycles: 60016468 heartbeat IPC: 4 cumulative IPC: 3.999 (Simulation time: 02 hr 00 min 28 sec)
Heartbeat CPU 1 instructions: 140000015 cycles: 61317973 heartbeat IPC: 2.683 cumulative IPC: 2.283 (Simulation time: 02 hr 02 min 45 sec)
Heartbeat CPU 0 instructions: 30000005 cycles: 62342688 heartbeat IPC: 0.4968 cumulative IPC: 0.4812 (Simulation time: 02 hr 04 min 30 sec)
Heartbeat CPU 3 instructions: 250000006 cycles: 62514016 heartbeat IPC: 4 cumulative IPC: 3.999 (Simulation time: 02 hr 04 min 48 sec)
Heartbeat CPU 2 instructions: 250000006 cycles: 62516468 heartbeat IPC: 4 cumulative IPC: 3.999 (Simulation time: 02 hr 04 min 49 sec)
Heartbeat CPU 3 instructions: 260000006 cycles: 65014016 heartbeat IPC: 4 cumulative IPC: 3.999 (Simulation time: 02 hr 09 min 06 sec)
Heartbeat CPU 2 instructions: 260000006 cycles: 65016468 heartbeat IPC: 4 cumulative IPC: 3.999 (Simulation time: 02 hr 09 min 06 sec)
Heartbeat CPU 1 instructions: 150000015 cycles: 65515755 heartbeat IPC: 2.382 cumulative IPC: 2.29 (Simulation time: 02 hr 09 min 59 sec)
Heartbeat CPU 3 instructions: 270000006 cycles: 67514016 heartbeat IPC: 4 cumulative IPC: 3.999 (Simulation time: 02 hr 13 min 42 sec)
Heartbeat CPU 2 instructions: 270000006 cycles: 67516468 heartbeat IPC: 4 cumulative IPC: 3.999 (Simulation time: 02 hr 13 min 42 sec)
*** Reached end of trace: (2, "traces/ocean_8t/ocean2.champsimtrace")
*** Reached end of trace: (3, "traces/ocean_8t/ocean3.champsimtrace")
Heartbeat CPU 1 instructions: 160000018 cycles: 69639412 heartbeat IPC: 2.425 cumulative IPC: 2.298 (Simulation time: 02 hr 17 min 46 sec)
Heartbeat CPU 3 instructions: 280000006 cycles: 70014016 heartbeat IPC: 4 cumulative IPC: 3.999 (Simulation time: 02 hr 18 min 29 sec)
Heartbeat CPU 2 instructions: 280000006 cycles: 70016468 heartbeat IPC: 4 cumulative IPC: 3.999 (Simulation time: 02 hr 18 min 29 sec)
Heartbeat CPU 3 instructions: 290000006 cycles: 72514016 heartbeat IPC: 4 cumulative IPC: 3.999 (Simulation time: 02 hr 23 min 09 sec)
Heartbeat CPU 2 instructions: 290000006 cycles: 72516468 heartbeat IPC: 4 cumulative IPC: 3.999 (Simulation time: 02 hr 23 min 10 sec)
Heartbeat CPU 3 instructions: 300000006 cycles: 75014016 heartbeat IPC: 4 cumulative IPC: 3.999 (Simulation time: 02 hr 27 min 50 sec)
Heartbeat CPU 2 instructions: 300000006 cycles: 75016468 heartbeat IPC: 4 cumulative IPC: 3.999 (Simulation time: 02 hr 27 min 50 sec)
Heartbeat CPU 1 instructions: 170000018 cycles: 75214884 heartbeat IPC: 1.794 cumulative IPC: 2.26 (Simulation time: 02 hr 28 min 12 sec)
Heartbeat CPU 3 instructions: 310000006 cycles: 77514016 heartbeat IPC: 4 cumulative IPC: 3.999 (Simulation time: 02 hr 32 min 39 sec)
Heartbeat CPU 2 instructions: 310000006 cycles: 77516468 heartbeat IPC: 4 cumulative IPC: 3.999 (Simulation time: 02 hr 32 min 39 sec)
Heartbeat CPU 1 instructions: 180000021 cycles: 78760050 heartbeat IPC: 2.821 cumulative IPC: 2.285 (Simulation time: 02 hr 35 min 02 sec)
*** Reached end of trace: (2, "traces/ocean_8t/ocean2.champsimtrace")
*** Reached end of trace: (1, "traces/ocean_8t/ocean1.champsimtrace")
*** Reached end of trace: (3, "traces/ocean_8t/ocean3.champsimtrace")
Heartbeat CPU 3 instructions: 320000006 cycles: 80014016 heartbeat IPC: 4 cumulative IPC: 3.999 (Simulation time: 02 hr 37 min 26 sec)
Heartbeat CPU 2 instructions: 320000006 cycles: 80016468 heartbeat IPC: 4 cumulative IPC: 3.999 (Simulation time: 02 hr 37 min 26 sec)
Heartbeat CPU 3 instructions: 330000006 cycles: 82514016 heartbeat IPC: 4 cumulative IPC: 3.999 (Simulation time: 02 hr 42 min 13 sec)
Heartbeat CPU 2 instructions: 330000006 cycles: 82516468 heartbeat IPC: 4 cumulative IPC: 3.999 (Simulation time: 02 hr 42 min 13 sec)
Heartbeat CPU 1 instructions: 190000024 cycles: 82762962 heartbeat IPC: 2.498 cumulative IPC: 2.296 (Simulation time: 02 hr 42 min 42 sec)
Heartbeat CPU 0 instructions: 40000006 cycles: 84810796 heartbeat IPC: 0.4451 cumulative IPC: 0.4716 (Simulation time: 02 hr 46 min 36 sec)
Heartbeat CPU 3 instructions: 340000006 cycles: 85014016 heartbeat IPC: 4 cumulative IPC: 3.999 (Simulation time: 02 hr 47 min 00 sec)
Heartbeat CPU 2 instructions: 340000006 cycles: 85016468 heartbeat IPC: 4 cumulative IPC: 3.999 (Simulation time: 02 hr 47 min 01 sec)
Heartbeat CPU 1 instructions: 200000024 cycles: 86850885 heartbeat IPC: 2.446 cumulative IPC: 2.303 (Simulation time: 02 hr 50 min 26 sec)
Heartbeat CPU 3 instructions: 350000006 cycles: 87514016 heartbeat IPC: 4 cumulative IPC: 3.999 (Simulation time: 02 hr 51 min 43 sec)
Heartbeat CPU 2 instructions: 350000006 cycles: 87516468 heartbeat IPC: 4 cumulative IPC: 3.999 (Simulation time: 02 hr 51 min 43 sec)
Heartbeat CPU 3 instructions: 360000006 cycles: 90014016 heartbeat IPC: 4 cumulative IPC: 3.999 (Simulation time: 02 hr 56 min 36 sec)
Heartbeat CPU 2 instructions: 360000006 cycles: 90016468 heartbeat IPC: 4 cumulative IPC: 3.999 (Simulation time: 02 hr 56 min 36 sec)
*** Reached end of trace: (2, "traces/ocean_8t/ocean2.champsimtrace")
*** Reached end of trace: (3, "traces/ocean_8t/ocean3.champsimtrace")
Heartbeat CPU 1 instructions: 210000025 cycles: 91601851 heartbeat IPC: 2.105 cumulative IPC: 2.293 (Simulation time: 02 hr 59 min 38 sec)
Heartbeat CPU 3 instructions: 370000006 cycles: 92514016 heartbeat IPC: 4 cumulative IPC: 3.999 (Simulation time: 03 hr 01 min 22 sec)
Heartbeat CPU 2 instructions: 370000006 cycles: 92516468 heartbeat IPC: 4 cumulative IPC: 3.999 (Simulation time: 03 hr 01 min 22 sec)
Heartbeat CPU 3 instructions: 380000006 cycles: 95014016 heartbeat IPC: 4 cumulative IPC: 3.999 (Simulation time: 03 hr 06 min 11 sec)
Heartbeat CPU 2 instructions: 380000006 cycles: 95016468 heartbeat IPC: 4 cumulative IPC: 3.999 (Simulation time: 03 hr 06 min 11 sec)
Heartbeat CPU 1 instructions: 220000026 cycles: 96319336 heartbeat IPC: 2.12 cumulative IPC: 2.284 (Simulation time: 03 hr 08 min 42 sec)
Heartbeat CPU 3 instructions: 390000006 cycles: 97514016 heartbeat IPC: 4 cumulative IPC: 3.999 (Simulation time: 03 hr 11 min 01 sec)
Heartbeat CPU 2 instructions: 390000006 cycles: 97516468 heartbeat IPC: 4 cumulative IPC: 3.999 (Simulation time: 03 hr 11 min 02 sec)
*** Reached end of trace: (0, "traces/ocean_8t/ocean0.champsimtrace")
*** Reached end of trace: (1, "traces/ocean_8t/ocean1.champsimtrace")
Heartbeat CPU 3 instructions: 400000006 cycles: 100014016 heartbeat IPC: 4 cumulative IPC: 3.999 (Simulation time: 03 hr 15 min 58 sec)
Heartbeat CPU 2 instructions: 400000006 cycles: 100016468 heartbeat IPC: 4 cumulative IPC: 3.999 (Simulation time: 03 hr 15 min 58 sec)
Heartbeat CPU 1 instructions: 230000028 cycles: 100028645 heartbeat IPC: 2.696 cumulative IPC: 2.299 (Simulation time: 03 hr 16 min 00 sec)
*** Reached end of trace: (2, "traces/ocean_8t/ocean2.champsimtrace")
*** Reached end of trace: (3, "traces/ocean_8t/ocean3.champsimtrace")
Heartbeat CPU 3 instructions: 410000006 cycles: 102514016 heartbeat IPC: 4 cumulative IPC: 3.999 (Simulation time: 03 hr 20 min 42 sec)
Heartbeat CPU 2 instructions: 410000006 cycles: 102516468 heartbeat IPC: 4 cumulative IPC: 3.999 (Simulation time: 03 hr 20 min 42 sec)
Heartbeat CPU 1 instructions: 240000029 cycles: 104200281 heartbeat IPC: 2.397 cumulative IPC: 2.303 (Simulation time: 03 hr 23 min 57 sec)
Heartbeat CPU 3 instructions: 420000006 cycles: 105014016 heartbeat IPC: 4 cumulative IPC: 3.999 (Simulation time: 03 hr 25 min 31 sec)
Heartbeat CPU 2 instructions: 420000006 cycles: 105016468 heartbeat IPC: 4 cumulative IPC: 3.999 (Simulation time: 03 hr 25 min 31 sec)
Warmup finished CPU 0 instructions: 50000000 cycles: 106665668 cumulative IPC: 0.4688 (Simulation time: 03 hr 28 min 40 sec)
Warmup complete CPU 3 instructions: 426606614 cycles: 106665668 cumulative IPC: 3.999 (Simulation time: 03 hr 28 min 40 sec)
Warmup complete CPU 2 instructions: 426596806 cycles: 106665668 cumulative IPC: 3.999 (Simulation time: 03 hr 28 min 40 sec)
Warmup complete CPU 1 instructions: 246161073 cycles: 106665668 cumulative IPC: 2.308 (Simulation time: 03 hr 28 min 40 sec)
Warmup complete CPU 0 instructions: 50000000 cycles: 106665668 cumulative IPC: 0.4688 (Simulation time: 03 hr 28 min 40 sec)
Heartbeat CPU 0 instructions: 50000008 cycles: 106665713 heartbeat IPC: 0.4576 cumulative IPC: 0.1778 (Simulation time: 03 hr 28 min 40 sec)
Heartbeat CPU 3 instructions: 430000006 cycles: 107514016 heartbeat IPC: 4 cumulative IPC: 4 (Simulation time: 03 hr 30 min 14 sec)
Heartbeat CPU 2 instructions: 430000006 cycles: 107516468 heartbeat IPC: 4 cumulative IPC: 4 (Simulation time: 03 hr 30 min 14 sec)
Heartbeat CPU 3 instructions: 440000006 cycles: 110014016 heartbeat IPC: 4 cumulative IPC: 4 (Simulation time: 03 hr 34 min 38 sec)
Heartbeat CPU 2 instructions: 440000006 cycles: 110016468 heartbeat IPC: 4 cumulative IPC: 4 (Simulation time: 03 hr 34 min 39 sec)
Heartbeat CPU 3 instructions: 450000006 cycles: 112514016 heartbeat IPC: 4 cumulative IPC: 4 (Simulation time: 03 hr 38 min 56 sec)
Heartbeat CPU 2 instructions: 450000006 cycles: 112516468 heartbeat IPC: 4 cumulative IPC: 4 (Simulation time: 03 hr 38 min 56 sec)
*** Reached end of trace: (2, "traces/ocean_8t/ocean2.champsimtrace")
*** Reached end of trace: (3, "traces/ocean_8t/ocean3.champsimtrace")
Heartbeat CPU 3 instructions: 460000007 cycles: 115014036 heartbeat IPC: 4 cumulative IPC: 4 (Simulation time: 03 hr 43 min 13 sec)
Heartbeat CPU 2 instructions: 460000007 cycles: 115016491 heartbeat IPC: 4 cumulative IPC: 4 (Simulation time: 03 hr 43 min 13 sec)
Heartbeat CPU 1 instructions: 250000029 cycles: 116356578 heartbeat IPC: 0.8226 cumulative IPC: 0.3961 (Simulation time: 03 hr 45 min 32 sec)
Heartbeat CPU 3 instructions: 470000007 cycles: 117514036 heartbeat IPC: 4 cumulative IPC: 4 (Simulation time: 03 hr 47 min 33 sec)
Heartbeat CPU 2 instructions: 470000007 cycles: 117516491 heartbeat IPC: 4 cumulative IPC: 4 (Simulation time: 03 hr 47 min 33 sec)
Heartbeat CPU 3 instructions: 480000007 cycles: 120014036 heartbeat IPC: 4 cumulative IPC: 4 (Simulation time: 03 hr 51 min 40 sec)
Heartbeat CPU 2 instructions: 480000007 cycles: 120016491 heartbeat IPC: 4 cumulative IPC: 4 (Simulation time: 03 hr 51 min 40 sec)
Heartbeat CPU 3 instructions: 490000007 cycles: 122514036 heartbeat IPC: 4 cumulative IPC: 4 (Simulation time: 03 hr 55 min 47 sec)
Heartbeat CPU 2 instructions: 490000007 cycles: 122516491 heartbeat IPC: 4 cumulative IPC: 4 (Simulation time: 03 hr 55 min 47 sec)
*** Reached end of trace: (2, "traces/ocean_8t/ocean2.champsimtrace")
*** Reached end of trace: (3, "traces/ocean_8t/ocean3.champsimtrace")
Heartbeat CPU 3 instructions: 500000010 cycles: 125014053 heartbeat IPC: 4 cumulative IPC: 4 (Simulation time: 03 hr 59 min 48 sec)
Heartbeat CPU 2 instructions: 500000008 cycles: 125016514 heartbeat IPC: 4 cumulative IPC: 4 (Simulation time: 03 hr 59 min 48 sec)
Heartbeat CPU 3 instructions: 510000010 cycles: 127514053 heartbeat IPC: 4 cumulative IPC: 4 (Simulation time: 04 hr 03 min 54 sec)
Heartbeat CPU 2 instructions: 510000008 cycles: 127516514 heartbeat IPC: 4 cumulative IPC: 4 (Simulation time: 04 hr 03 min 55 sec)
Heartbeat CPU 3 instructions: 520000010 cycles: 130014053 heartbeat IPC: 4 cumulative IPC: 4 (Simulation time: 04 hr 07 min 53 sec)
Heartbeat CPU 2 instructions: 520000008 cycles: 130016514 heartbeat IPC: 4 cumulative IPC: 4 (Simulation time: 04 hr 07 min 53 sec)
Simulation finished CPU 3 instructions: 100000000 cycles: 25000036 cumulative IPC: 4 (Simulation time: 04 hr 10 min 38 sec)
Simulation finished CPU 2 instructions: 100000002 cycles: 25000046 cumulative IPC: 4 (Simulation time: 04 hr 10 min 38 sec)
Heartbeat CPU 3 instructions: 530000010 cycles: 132514053 heartbeat IPC: 4 cumulative IPC: 4 (Simulation time: 04 hr 12 min 02 sec)
Heartbeat CPU 2 instructions: 530000008 cycles: 132516514 heartbeat IPC: 4 cumulative IPC: 4 (Simulation time: 04 hr 12 min 03 sec)
Heartbeat CPU 3 instructions: 540000010 cycles: 135014053 heartbeat IPC: 4 cumulative IPC: 4 (Simulation time: 04 hr 16 min 21 sec)
Heartbeat CPU 2 instructions: 540000008 cycles: 135016514 heartbeat IPC: 4 cumulative IPC: 4 (Simulation time: 04 hr 16 min 21 sec)
*** Reached end of trace: (2, "traces/ocean_8t/ocean2.champsimtrace")
*** Reached end of trace: (3, "traces/ocean_8t/ocean3.champsimtrace")
Heartbeat CPU 3 instructions: 550000013 cycles: 137514070 heartbeat IPC: 4 cumulative IPC: 4 (Simulation time: 04 hr 20 min 31 sec)
Heartbeat CPU 2 instructions: 550000009 cycles: 137516537 heartbeat IPC: 4 cumulative IPC: 4 (Simulation time: 04 hr 20 min 31 sec)
Heartbeat CPU 3 instructions: 560000013 cycles: 140014070 heartbeat IPC: 4 cumulative IPC: 4 (Simulation time: 04 hr 24 min 43 sec)
Heartbeat CPU 2 instructions: 560000009 cycles: 140016537 heartbeat IPC: 4 cumulative IPC: 4 (Simulation time: 04 hr 24 min 43 sec)
Heartbeat CPU 3 instructions: 570000013 cycles: 142514070 heartbeat IPC: 4 cumulative IPC: 4 (Simulation time: 04 hr 28 min 51 sec)
Heartbeat CPU 2 instructions: 570000009 cycles: 142516537 heartbeat IPC: 4 cumulative IPC: 4 (Simulation time: 04 hr 28 min 52 sec)
Heartbeat CPU 3 instructions: 580000013 cycles: 145014070 heartbeat IPC: 4 cumulative IPC: 4 (Simulation time: 04 hr 33 min 09 sec)
Heartbeat CPU 2 instructions: 580000009 cycles: 145016537 heartbeat IPC: 4 cumulative IPC: 4 (Simulation time: 04 hr 33 min 09 sec)
*** Reached end of trace: (2, "traces/ocean_8t/ocean2.champsimtrace")
Heartbeat CPU 3 instructions: 590000013 cycles: 147514070 heartbeat IPC: 4 cumulative IPC: 4 (Simulation time: 04 hr 37 min 25 sec)
Heartbeat CPU 2 instructions: 590000010 cycles: 147516560 heartbeat IPC: 4 cumulative IPC: 4 (Simulation time: 04 hr 37 min 26 sec)
*** Reached end of trace: (3, "traces/ocean_8t/ocean3.champsimtrace")
Heartbeat CPU 0 instructions: 60000011 cycles: 149920898 heartbeat IPC: 0.2312 cumulative IPC: 0.2312 (Simulation time: 04 hr 41 min 31 sec)
Heartbeat CPU 3 instructions: 600000016 cycles: 150014087 heartbeat IPC: 4 cumulative IPC: 4 (Simulation time: 04 hr 41 min 40 sec)
Heartbeat CPU 2 instructions: 600000010 cycles: 150016560 heartbeat IPC: 4 cumulative IPC: 4 (Simulation time: 04 hr 41 min 41 sec)
Heartbeat CPU 3 instructions: 610000016 cycles: 152514087 heartbeat IPC: 4 cumulative IPC: 4 (Simulation time: 04 hr 45 min 57 sec)
Heartbeat CPU 2 instructions: 610000010 cycles: 152516560 heartbeat IPC: 4 cumulative IPC: 4 (Simulation time: 04 hr 45 min 57 sec)
Heartbeat CPU 1 instructions: 260000030 cycles: 153267767 heartbeat IPC: 0.2709 cumulative IPC: 0.297 (Simulation time: 04 hr 47 min 16 sec)
Heartbeat CPU 3 instructions: 620000016 cycles: 155014087 heartbeat IPC: 4 cumulative IPC: 4 (Simulation time: 04 hr 50 min 15 sec)
Heartbeat CPU 2 instructions: 620000010 cycles: 155016560 heartbeat IPC: 4 cumulative IPC: 4 (Simulation time: 04 hr 50 min 15 sec)
Heartbeat CPU 3 instructions: 630000016 cycles: 157514087 heartbeat IPC: 4 cumulative IPC: 4 (Simulation time: 04 hr 54 min 36 sec)
Heartbeat CPU 2 instructions: 630000010 cycles: 157516560 heartbeat IPC: 4 cumulative IPC: 4 (Simulation time: 04 hr 54 min 36 sec)
*** Reached end of trace: (2, "traces/ocean_8t/ocean2.champsimtrace")
*** Reached end of trace: (3, "traces/ocean_8t/ocean3.champsimtrace")
Heartbeat CPU 3 instructions: 640000019 cycles: 160014104 heartbeat IPC: 4 cumulative IPC: 4 (Simulation time: 04 hr 59 min 03 sec)
Heartbeat CPU 2 instructions: 640000011 cycles: 160016583 heartbeat IPC: 4 cumulative IPC: 4 (Simulation time: 04 hr 59 min 03 sec)
Heartbeat CPU 3 instructions: 650000019 cycles: 162514104 heartbeat IPC: 4 cumulative IPC: 4 (Simulation time: 05 hr 03 min 31 sec)
Heartbeat CPU 2 instructions: 650000011 cycles: 162516583 heartbeat IPC: 4 cumulative IPC: 4 (Simulation time: 05 hr 03 min 31 sec)
Heartbeat CPU 3 instructions: 660000019 cycles: 165014104 heartbeat IPC: 4 cumulative IPC: 4 (Simulation time: 05 hr 07 min 55 sec)
Heartbeat CPU 2 instructions: 660000011 cycles: 165016583 heartbeat IPC: 4 cumulative IPC: 4 (Simulation time: 05 hr 07 min 56 sec)
Heartbeat CPU 3 instructions: 670000019 cycles: 167514104 heartbeat IPC: 4 cumulative IPC: 4 (Simulation time: 05 hr 12 min 15 sec)
Heartbeat CPU 2 instructions: 670000011 cycles: 167516583 heartbeat IPC: 4 cumulative IPC: 4 (Simulation time: 05 hr 12 min 15 sec)
*** Reached end of trace: (2, "traces/ocean_8t/ocean2.champsimtrace")
Heartbeat CPU 3 instructions: 680000019 cycles: 170014104 heartbeat IPC: 4 cumulative IPC: 4 (Simulation time: 05 hr 16 min 36 sec)
Heartbeat CPU 2 instructions: 680000012 cycles: 170016606 heartbeat IPC: 4 cumulative IPC: 4 (Simulation time: 05 hr 16 min 36 sec)
*** Reached end of trace: (3, "traces/ocean_8t/ocean3.champsimtrace")
Heartbeat CPU 3 instructions: 690000022 cycles: 172514121 heartbeat IPC: 4 cumulative IPC: 4 (Simulation time: 05 hr 21 min 02 sec)
Heartbeat CPU 2 instructions: 690000012 cycles: 172516606 heartbeat IPC: 4 cumulative IPC: 4 (Simulation time: 05 hr 21 min 02 sec)
Heartbeat CPU 3 instructions: 700000022 cycles: 175014121 heartbeat IPC: 4 cumulative IPC: 4 (Simulation time: 05 hr 25 min 19 sec)
Heartbeat CPU 2 instructions: 700000012 cycles: 175016606 heartbeat IPC: 4 cumulative IPC: 4 (Simulation time: 05 hr 25 min 19 sec)
Heartbeat CPU 3 instructions: 710000022 cycles: 177514121 heartbeat IPC: 4 cumulative IPC: 4 (Simulation time: 05 hr 29 min 44 sec)
Heartbeat CPU 2 instructions: 710000012 cycles: 177516606 heartbeat IPC: 4 cumulative IPC: 4 (Simulation time: 05 hr 29 min 44 sec)
Heartbeat CPU 3 instructions: 720000022 cycles: 180014121 heartbeat IPC: 4 cumulative IPC: 4 (Simulation time: 05 hr 34 min 00 sec)
Heartbeat CPU 2 instructions: 720000012 cycles: 180016606 heartbeat IPC: 4 cumulative IPC: 4 (Simulation time: 05 hr 34 min 01 sec)
*** Reached end of trace: (2, "traces/ocean_8t/ocean2.champsimtrace")
*** Reached end of trace: (3, "traces/ocean_8t/ocean3.champsimtrace")
Heartbeat CPU 3 instructions: 730000025 cycles: 182514138 heartbeat IPC: 4 cumulative IPC: 4 (Simulation time: 05 hr 38 min 19 sec)
Heartbeat CPU 2 instructions: 730000013 cycles: 182516629 heartbeat IPC: 4 cumulative IPC: 4 (Simulation time: 05 hr 38 min 20 sec)
Heartbeat CPU 3 instructions: 740000025 cycles: 185014138 heartbeat IPC: 4 cumulative IPC: 4 (Simulation time: 05 hr 42 min 41 sec)
Heartbeat CPU 2 instructions: 740000013 cycles: 185016629 heartbeat IPC: 4 cumulative IPC: 4 (Simulation time: 05 hr 42 min 41 sec)
Heartbeat CPU 3 instructions: 750000025 cycles: 187514138 heartbeat IPC: 4 cumulative IPC: 4 (Simulation time: 05 hr 46 min 36 sec)
Heartbeat CPU 2 instructions: 750000013 cycles: 187516629 heartbeat IPC: 4 cumulative IPC: 4 (Simulation time: 05 hr 46 min 36 sec)
Heartbeat CPU 1 instructions: 270000030 cycles: 188490487 heartbeat IPC: 0.2839 cumulative IPC: 0.2913 (Simulation time: 05 hr 48 min 08 sec)
Heartbeat CPU 3 instructions: 760000025 cycles: 190014138 heartbeat IPC: 4 cumulative IPC: 4 (Simulation time: 05 hr 50 min 39 sec)
Heartbeat CPU 2 instructions: 760000013 cycles: 190016629 heartbeat IPC: 4 cumulative IPC: 4 (Simulation time: 05 hr 50 min 40 sec)
*** Reached end of trace: (2, "traces/ocean_8t/ocean2.champsimtrace")
Heartbeat CPU 3 instructions: 770000025 cycles: 192514138 heartbeat IPC: 4 cumulative IPC: 4 (Simulation time: 05 hr 54 min 39 sec)
Heartbeat CPU 2 instructions: 770000014 cycles: 192516652 heartbeat IPC: 4 cumulative IPC: 4 (Simulation time: 05 hr 54 min 40 sec)
*** Reached end of trace: (3, "traces/ocean_8t/ocean3.champsimtrace")
*** Reached end of trace: (1, "traces/ocean_8t/ocean1.champsimtrace")
Heartbeat CPU 3 instructions: 780000028 cycles: 195014155 heartbeat IPC: 4 cumulative IPC: 4 (Simulation time: 05 hr 58 min 39 sec)
Heartbeat CPU 2 instructions: 780000014 cycles: 195016652 heartbeat IPC: 4 cumulative IPC: 4 (Simulation time: 05 hr 58 min 39 sec)
Heartbeat CPU 3 instructions: 790000028 cycles: 197514155 heartbeat IPC: 4 cumulative IPC: 4 (Simulation time: 06 hr 02 min 58 sec)
Heartbeat CPU 2 instructions: 790000014 cycles: 197516652 heartbeat IPC: 4 cumulative IPC: 4 (Simulation time: 06 hr 02 min 58 sec)
Heartbeat CPU 1 instructions: 280000031 cycles: 199746525 heartbeat IPC: 0.8884 cumulative IPC: 0.3635 (Simulation time: 06 hr 06 min 45 sec)
Heartbeat CPU 3 instructions: 800000028 cycles: 200014155 heartbeat IPC: 4 cumulative IPC: 4 (Simulation time: 06 hr 07 min 13 sec)
Heartbeat CPU 2 instructions: 800000014 cycles: 200016652 heartbeat IPC: 4 cumulative IPC: 4 (Simulation time: 06 hr 07 min 14 sec)
Heartbeat CPU 3 instructions: 810000028 cycles: 202514155 heartbeat IPC: 4 cumulative IPC: 4 (Simulation time: 06 hr 11 min 26 sec)
Heartbeat CPU 2 instructions: 810000014 cycles: 202516652 heartbeat IPC: 4 cumulative IPC: 4 (Simulation time: 06 hr 11 min 26 sec)
*** Reached end of trace: (2, "traces/ocean_8t/ocean2.champsimtrace")
*** Reached end of trace: (3, "traces/ocean_8t/ocean3.champsimtrace")
Heartbeat CPU 3 instructions: 820000031 cycles: 205014172 heartbeat IPC: 4 cumulative IPC: 4 (Simulation time: 06 hr 15 min 35 sec)
Heartbeat CPU 2 instructions: 820000015 cycles: 205016675 heartbeat IPC: 4 cumulative IPC: 4 (Simulation time: 06 hr 15 min 35 sec)
Heartbeat CPU 3 instructions: 830000031 cycles: 207514172 heartbeat IPC: 4 cumulative IPC: 4 (Simulation time: 06 hr 19 min 41 sec)
Heartbeat CPU 2 instructions: 830000015 cycles: 207516675 heartbeat IPC: 4 cumulative IPC: 4 (Simulation time: 06 hr 19 min 41 sec)
Heartbeat CPU 3 instructions: 840000031 cycles: 210014172 heartbeat IPC: 4 cumulative IPC: 4 (Simulation time: 06 hr 23 min 44 sec)
Heartbeat CPU 2 instructions: 840000015 cycles: 210016675 heartbeat IPC: 4 cumulative IPC: 4 (Simulation time: 06 hr 23 min 44 sec)
Heartbeat CPU 3 instructions: 850000031 cycles: 212514172 heartbeat IPC: 4 cumulative IPC: 4 (Simulation time: 06 hr 27 min 44 sec)
Heartbeat CPU 2 instructions: 850000015 cycles: 212516675 heartbeat IPC: 4 cumulative IPC: 4 (Simulation time: 06 hr 27 min 44 sec)
Heartbeat CPU 0 instructions: 70000013 cycles: 213962643 heartbeat IPC: 0.1561 cumulative IPC: 0.1864 (Simulation time: 06 hr 30 min 07 sec)
*** Reached end of trace: (2, "traces/ocean_8t/ocean2.champsimtrace")
Heartbeat CPU 3 instructions: 860000031 cycles: 215014172 heartbeat IPC: 4 cumulative IPC: 4 (Simulation time: 06 hr 31 min 56 sec)
Heartbeat CPU 2 instructions: 860000016 cycles: 215016698 heartbeat IPC: 4 cumulative IPC: 4 (Simulation time: 06 hr 31 min 56 sec)
*** Reached end of trace: (3, "traces/ocean_8t/ocean3.champsimtrace")
Heartbeat CPU 3 instructions: 870000034 cycles: 217514189 heartbeat IPC: 4 cumulative IPC: 4 (Simulation time: 06 hr 36 min 06 sec)
Heartbeat CPU 2 instructions: 870000016 cycles: 217516698 heartbeat IPC: 4 cumulative IPC: 4 (Simulation time: 06 hr 36 min 06 sec)
Heartbeat CPU 3 instructions: 880000034 cycles: 220014189 heartbeat IPC: 4 cumulative IPC: 4 (Simulation time: 06 hr 40 min 24 sec)
Heartbeat CPU 2 instructions: 880000016 cycles: 220016698 heartbeat IPC: 4 cumulative IPC: 4 (Simulation time: 06 hr 40 min 24 sec)
Heartbeat CPU 1 instructions: 290000034 cycles: 222259382 heartbeat IPC: 0.4442 cumulative IPC: 0.3793 (Simulation time: 06 hr 44 min 16 sec)
Heartbeat CPU 3 instructions: 890000034 cycles: 222514189 heartbeat IPC: 4 cumulative IPC: 4 (Simulation time: 06 hr 44 min 47 sec)
Heartbeat CPU 2 instructions: 890000016 cycles: 222516698 heartbeat IPC: 4 cumulative IPC: 4 (Simulation time: 06 hr 44 min 47 sec)
Heartbeat CPU 3 instructions: 900000034 cycles: 225014189 heartbeat IPC: 4 cumulative IPC: 4 (Simulation time: 06 hr 48 min 55 sec)
Heartbeat CPU 2 instructions: 900000016 cycles: 225016698 heartbeat IPC: 4 cumulative IPC: 4 (Simulation time: 06 hr 48 min 55 sec)
*** Reached end of trace: (2, "traces/ocean_8t/ocean2.champsimtrace")
*** Reached end of trace: (3, "traces/ocean_8t/ocean3.champsimtrace")
Heartbeat CPU 3 instructions: 910000037 cycles: 227514206 heartbeat IPC: 4 cumulative IPC: 4 (Simulation time: 06 hr 52 min 24 sec)
Heartbeat CPU 2 instructions: 910000017 cycles: 227516721 heartbeat IPC: 4 cumulative IPC: 4 (Simulation time: 06 hr 52 min 24 sec)
Heartbeat CPU 3 instructions: 920000037 cycles: 230014206 heartbeat IPC: 4 cumulative IPC: 4 (Simulation time: 06 hr 56 min 26 sec)
Heartbeat CPU 2 instructions: 920000017 cycles: 230016721 heartbeat IPC: 4 cumulative IPC: 4 (Simulation time: 06 hr 56 min 26 sec)
Heartbeat CPU 3 instructions: 930000037 cycles: 232514206 heartbeat IPC: 4 cumulative IPC: 4 (Simulation time: 07 hr 00 min 25 sec)
Heartbeat CPU 2 instructions: 930000017 cycles: 232516721 heartbeat IPC: 4 cumulative IPC: 4 (Simulation time: 07 hr 00 min 26 sec)
Heartbeat CPU 3 instructions: 940000037 cycles: 235014206 heartbeat IPC: 4 cumulative IPC: 4 (Simulation time: 07 hr 04 min 40 sec)
Heartbeat CPU 2 instructions: 940000017 cycles: 235016721 heartbeat IPC: 4 cumulative IPC: 4 (Simulation time: 07 hr 04 min 40 sec)
*** Reached end of trace: (2, "traces/ocean_8t/ocean2.champsimtrace")
Heartbeat CPU 3 instructions: 950000037 cycles: 237514206 heartbeat IPC: 4 cumulative IPC: 4 (Simulation time: 07 hr 08 min 55 sec)
Heartbeat CPU 2 instructions: 950000018 cycles: 237516744 heartbeat IPC: 4 cumulative IPC: 4 (Simulation time: 07 hr 08 min 55 sec)
*** Reached end of trace: (3, "traces/ocean_8t/ocean3.champsimtrace")
Heartbeat CPU 3 instructions: 960000040 cycles: 240014223 heartbeat IPC: 4 cumulative IPC: 4 (Simulation time: 07 hr 13 min 20 sec)
Heartbeat CPU 2 instructions: 960000018 cycles: 240016744 heartbeat IPC: 4 cumulative IPC: 4 (Simulation time: 07 hr 13 min 20 sec)
Heartbeat CPU 3 instructions: 970000040 cycles: 242514223 heartbeat IPC: 4 cumulative IPC: 4 (Simulation time: 07 hr 17 min 37 sec)
Heartbeat CPU 2 instructions: 970000018 cycles: 242516744 heartbeat IPC: 4 cumulative IPC: 4 (Simulation time: 07 hr 17 min 38 sec)
Heartbeat CPU 3 instructions: 980000040 cycles: 245014223 heartbeat IPC: 4 cumulative IPC: 4 (Simulation time: 07 hr 21 min 57 sec)
Heartbeat CPU 2 instructions: 980000018 cycles: 245016744 heartbeat IPC: 4 cumulative IPC: 4 (Simulation time: 07 hr 21 min 57 sec)
Heartbeat CPU 3 instructions: 990000040 cycles: 247514223 heartbeat IPC: 4 cumulative IPC: 4 (Simulation time: 07 hr 26 min 25 sec)
Heartbeat CPU 2 instructions: 990000018 cycles: 247516744 heartbeat IPC: 4 cumulative IPC: 4 (Simulation time: 07 hr 26 min 25 sec)
*** Reached end of trace: (2, "traces/ocean_8t/ocean2.champsimtrace")
*** Reached end of trace: (3, "traces/ocean_8t/ocean3.champsimtrace")
Heartbeat CPU 3 instructions: 1000000043 cycles: 250014240 heartbeat IPC: 4 cumulative IPC: 4 (Simulation time: 07 hr 30 min 59 sec)
Heartbeat CPU 2 instructions: 1000000019 cycles: 250016767 heartbeat IPC: 4 cumulative IPC: 4 (Simulation time: 07 hr 31 min 00 sec)
Heartbeat CPU 3 instructions: 1010000043 cycles: 252514240 heartbeat IPC: 4 cumulative IPC: 4 (Simulation time: 07 hr 35 min 21 sec)
Heartbeat CPU 2 instructions: 1010000019 cycles: 252516767 heartbeat IPC: 4 cumulative IPC: 4 (Simulation time: 07 hr 35 min 21 sec)
Heartbeat CPU 3 instructions: 1020000043 cycles: 255014240 heartbeat IPC: 4 cumulative IPC: 4 (Simulation time: 07 hr 39 min 44 sec)
Heartbeat CPU 2 instructions: 1020000019 cycles: 255016767 heartbeat IPC: 4 cumulative IPC: 4 (Simulation time: 07 hr 39 min 44 sec)
Heartbeat CPU 3 instructions: 1030000043 cycles: 257514240 heartbeat IPC: 4 cumulative IPC: 4 (Simulation time: 07 hr 44 min 05 sec)
Heartbeat CPU 2 instructions: 1030000019 cycles: 257516767 heartbeat IPC: 4 cumulative IPC: 4 (Simulation time: 07 hr 44 min 05 sec)
Heartbeat CPU 1 instructions: 300000037 cycles: 258233490 heartbeat IPC: 0.278 cumulative IPC: 0.3552 (Simulation time: 07 hr 45 min 21 sec)
*** Reached end of trace: (2, "traces/ocean_8t/ocean2.champsimtrace")
Heartbeat CPU 3 instructions: 1040000043 cycles: 260014240 heartbeat IPC: 4 cumulative IPC: 4 (Simulation time: 07 hr 48 min 19 sec)
Heartbeat CPU 2 instructions: 1040000020 cycles: 260016790 heartbeat IPC: 4 cumulative IPC: 4 (Simulation time: 07 hr 48 min 19 sec)
*** Reached end of trace: (3, "traces/ocean_8t/ocean3.champsimtrace")
Heartbeat CPU 3 instructions: 1050000046 cycles: 262514257 heartbeat IPC: 4 cumulative IPC: 4 (Simulation time: 07 hr 52 min 31 sec)
Heartbeat CPU 2 instructions: 1050000020 cycles: 262516790 heartbeat IPC: 4 cumulative IPC: 4 (Simulation time: 07 hr 52 min 31 sec)
Heartbeat CPU 3 instructions: 1060000046 cycles: 265014257 heartbeat IPC: 4 cumulative IPC: 4 (Simulation time: 07 hr 56 min 39 sec)
Heartbeat CPU 2 instructions: 1060000020 cycles: 265016790 heartbeat IPC: 4 cumulative IPC: 4 (Simulation time: 07 hr 56 min 39 sec)
Heartbeat CPU 3 instructions: 1070000046 cycles: 267514257 heartbeat IPC: 4 cumulative IPC: 4 (Simulation time: 08 hr 00 min 45 sec)
Heartbeat CPU 2 instructions: 1070000020 cycles: 267516790 heartbeat IPC: 4 cumulative IPC: 4 (Simulation time: 08 hr 00 min 45 sec)
Heartbeat CPU 0 instructions: 80000017 cycles: 269766449 heartbeat IPC: 0.1792 cumulative IPC: 0.1839 (Simulation time: 08 hr 04 min 26 sec)
Heartbeat CPU 3 instructions: 1080000046 cycles: 270014257 heartbeat IPC: 4 cumulative IPC: 4 (Simulation time: 08 hr 04 min 50 sec)
Heartbeat CPU 2 instructions: 1080000020 cycles: 270016790 heartbeat IPC: 4 cumulative IPC: 4 (Simulation time: 08 hr 04 min 51 sec)
*** Reached end of trace: (2, "traces/ocean_8t/ocean2.champsimtrace")
*** Reached end of trace: (3, "traces/ocean_8t/ocean3.champsimtrace")
Heartbeat CPU 3 instructions: 1090000049 cycles: 272514274 heartbeat IPC: 4 cumulative IPC: 4 (Simulation time: 08 hr 08 min 56 sec)
Heartbeat CPU 2 instructions: 1090000021 cycles: 272516813 heartbeat IPC: 4 cumulative IPC: 4 (Simulation time: 08 hr 08 min 56 sec)
Heartbeat CPU 3 instructions: 1100000049 cycles: 275014274 heartbeat IPC: 4 cumulative IPC: 4 (Simulation time: 08 hr 13 min 06 sec)
Heartbeat CPU 2 instructions: 1100000021 cycles: 275016813 heartbeat IPC: 4 cumulative IPC: 4 (Simulation time: 08 hr 13 min 06 sec)
Heartbeat CPU 3 instructions: 1110000049 cycles: 277514274 heartbeat IPC: 4 cumulative IPC: 4 (Simulation time: 08 hr 17 min 09 sec)
Heartbeat CPU 2 instructions: 1110000021 cycles: 277516813 heartbeat IPC: 4 cumulative IPC: 4 (Simulation time: 08 hr 17 min 09 sec)
Heartbeat CPU 3 instructions: 1120000049 cycles: 280014274 heartbeat IPC: 4 cumulative IPC: 4 (Simulation time: 08 hr 21 min 12 sec)
Heartbeat CPU 2 instructions: 1120000021 cycles: 280016813 heartbeat IPC: 4 cumulative IPC: 4 (Simulation time: 08 hr 21 min 13 sec)
*** Reached end of trace: (2, "traces/ocean_8t/ocean2.champsimtrace")
Heartbeat CPU 3 instructions: 1130000049 cycles: 282514274 heartbeat IPC: 4 cumulative IPC: 4 (Simulation time: 08 hr 25 min 20 sec)
Heartbeat CPU 2 instructions: 1130000022 cycles: 282516836 heartbeat IPC: 4 cumulative IPC: 4 (Simulation time: 08 hr 25 min 21 sec)
*** Reached end of trace: (3, "traces/ocean_8t/ocean3.champsimtrace")
Heartbeat CPU 3 instructions: 1140000052 cycles: 285014291 heartbeat IPC: 4 cumulative IPC: 4 (Simulation time: 08 hr 29 min 31 sec)
Heartbeat CPU 2 instructions: 1140000022 cycles: 285016836 heartbeat IPC: 4 cumulative IPC: 4 (Simulation time: 08 hr 29 min 31 sec)
Heartbeat CPU 3 instructions: 1150000052 cycles: 287514291 heartbeat IPC: 4 cumulative IPC: 4 (Simulation time: 08 hr 33 min 48 sec)
Heartbeat CPU 2 instructions: 1150000022 cycles: 287516836 heartbeat IPC: 4 cumulative IPC: 4 (Simulation time: 08 hr 33 min 49 sec)
Heartbeat CPU 3 instructions: 1160000052 cycles: 290014291 heartbeat IPC: 4 cumulative IPC: 4 (Simulation time: 08 hr 37 min 53 sec)
Heartbeat CPU 2 instructions: 1160000022 cycles: 290016836 heartbeat IPC: 4 cumulative IPC: 4 (Simulation time: 08 hr 37 min 53 sec)
Heartbeat CPU 3 instructions: 1170000052 cycles: 292514291 heartbeat IPC: 4 cumulative IPC: 4 (Simulation time: 08 hr 41 min 59 sec)
Heartbeat CPU 2 instructions: 1170000022 cycles: 292516836 heartbeat IPC: 4 cumulative IPC: 4 (Simulation time: 08 hr 41 min 59 sec)
*** Reached end of trace: (2, "traces/ocean_8t/ocean2.champsimtrace")
Heartbeat CPU 3 instructions: 1180000052 cycles: 295014291 heartbeat IPC: 4 cumulative IPC: 4 (Simulation time: 08 hr 45 min 58 sec)
Heartbeat CPU 2 instructions: 1180000023 cycles: 295016859 heartbeat IPC: 4 cumulative IPC: 4 (Simulation time: 08 hr 45 min 58 sec)
*** Reached end of trace: (3, "traces/ocean_8t/ocean3.champsimtrace")
Heartbeat CPU 3 instructions: 1190000055 cycles: 297514308 heartbeat IPC: 4 cumulative IPC: 4 (Simulation time: 08 hr 49 min 58 sec)
Heartbeat CPU 2 instructions: 1190000023 cycles: 297516859 heartbeat IPC: 4 cumulative IPC: 4 (Simulation time: 08 hr 49 min 58 sec)
Heartbeat CPU 1 instructions: 310000038 cycles: 297954923 heartbeat IPC: 0.2518 cumulative IPC: 0.3337 (Simulation time: 08 hr 50 min 41 sec)
Heartbeat CPU 3 instructions: 1200000055 cycles: 300014308 heartbeat IPC: 4 cumulative IPC: 4 (Simulation time: 08 hr 54 min 07 sec)
Heartbeat CPU 2 instructions: 1200000023 cycles: 300016859 heartbeat IPC: 4 cumulative IPC: 4 (Simulation time: 08 hr 54 min 07 sec)
Heartbeat CPU 3 instructions: 1210000055 cycles: 302514308 heartbeat IPC: 4 cumulative IPC: 4 (Simulation time: 08 hr 58 min 03 sec)
Heartbeat CPU 2 instructions: 1210000023 cycles: 302516859 heartbeat IPC: 4 cumulative IPC: 4 (Simulation time: 08 hr 58 min 03 sec)
Heartbeat CPU 3 instructions: 1220000055 cycles: 305014308 heartbeat IPC: 4 cumulative IPC: 4 (Simulation time: 09 hr 02 min 01 sec)
Heartbeat CPU 2 instructions: 1220000023 cycles: 305016859 heartbeat IPC: 4 cumulative IPC: 4 (Simulation time: 09 hr 02 min 01 sec)
*** Reached end of trace: (2, "traces/ocean_8t/ocean2.champsimtrace")
*** Reached end of trace: (3, "traces/ocean_8t/ocean3.champsimtrace")
Heartbeat CPU 3 instructions: 1230000058 cycles: 307514325 heartbeat IPC: 4 cumulative IPC: 4 (Simulation time: 09 hr 06 min 00 sec)
Heartbeat CPU 2 instructions: 1230000024 cycles: 307516882 heartbeat IPC: 4 cumulative IPC: 4 (Simulation time: 09 hr 06 min 00 sec)
Heartbeat CPU 3 instructions: 1240000058 cycles: 310014325 heartbeat IPC: 4 cumulative IPC: 4 (Simulation time: 09 hr 10 min 01 sec)
Heartbeat CPU 2 instructions: 1240000024 cycles: 310016882 heartbeat IPC: 4 cumulative IPC: 4 (Simulation time: 09 hr 10 min 01 sec)
Heartbeat CPU 3 instructions: 1250000058 cycles: 312514325 heartbeat IPC: 4 cumulative IPC: 4 (Simulation time: 09 hr 14 min 05 sec)
Heartbeat CPU 2 instructions: 1250000024 cycles: 312516882 heartbeat IPC: 4 cumulative IPC: 4 (Simulation time: 09 hr 14 min 05 sec)
Heartbeat CPU 3 instructions: 1260000058 cycles: 315014325 heartbeat IPC: 4 cumulative IPC: 4 (Simulation time: 09 hr 18 min 12 sec)
Heartbeat CPU 2 instructions: 1260000024 cycles: 315016882 heartbeat IPC: 4 cumulative IPC: 4 (Simulation time: 09 hr 18 min 12 sec)
*** Reached end of trace: (2, "traces/ocean_8t/ocean2.champsimtrace")
Heartbeat CPU 3 instructions: 1270000058 cycles: 317514325 heartbeat IPC: 4 cumulative IPC: 4 (Simulation time: 09 hr 22 min 32 sec)
Heartbeat CPU 2 instructions: 1270000025 cycles: 317516905 heartbeat IPC: 4 cumulative IPC: 4 (Simulation time: 09 hr 22 min 32 sec)
*** Reached end of trace: (3, "traces/ocean_8t/ocean3.champsimtrace")
Heartbeat CPU 3 instructions: 1280000061 cycles: 320014342 heartbeat IPC: 4 cumulative IPC: 4 (Simulation time: 09 hr 26 min 58 sec)
Heartbeat CPU 2 instructions: 1280000025 cycles: 320016905 heartbeat IPC: 4 cumulative IPC: 4 (Simulation time: 09 hr 26 min 58 sec)
Heartbeat CPU 3 instructions: 1290000061 cycles: 322514342 heartbeat IPC: 4 cumulative IPC: 4 (Simulation time: 09 hr 31 min 12 sec)
Heartbeat CPU 2 instructions: 1290000025 cycles: 322516905 heartbeat IPC: 4 cumulative IPC: 4 (Simulation time: 09 hr 31 min 13 sec)
*** Reached end of trace: (1, "traces/ocean_8t/ocean1.champsimtrace")
Heartbeat CPU 3 instructions: 1300000061 cycles: 325014342 heartbeat IPC: 4 cumulative IPC: 4 (Simulation time: 09 hr 35 min 44 sec)
Heartbeat CPU 2 instructions: 1300000025 cycles: 325016905 heartbeat IPC: 4 cumulative IPC: 4 (Simulation time: 09 hr 35 min 44 sec)
Heartbeat CPU 1 instructions: 320000039 cycles: 325310288 heartbeat IPC: 0.3656 cumulative IPC: 0.3377 (Simulation time: 09 hr 36 min 14 sec)
Heartbeat CPU 3 instructions: 1310000061 cycles: 327514342 heartbeat IPC: 4 cumulative IPC: 4 (Simulation time: 09 hr 40 min 03 sec)
Heartbeat CPU 2 instructions: 1310000025 cycles: 327516905 heartbeat IPC: 4 cumulative IPC: 4 (Simulation time: 09 hr 40 min 03 sec)
*** Reached end of trace: (2, "traces/ocean_8t/ocean2.champsimtrace")
*** Reached end of trace: (3, "traces/ocean_8t/ocean3.champsimtrace")
Heartbeat CPU 3 instructions: 1320000064 cycles: 330014359 heartbeat IPC: 4 cumulative IPC: 4 (Simulation time: 09 hr 44 min 30 sec)
Heartbeat CPU 2 instructions: 1320000026 cycles: 330016928 heartbeat IPC: 4 cumulative IPC: 4 (Simulation time: 09 hr 44 min 30 sec)
Heartbeat CPU 3 instructions: 1330000064 cycles: 332514359 heartbeat IPC: 4 cumulative IPC: 4 (Simulation time: 09 hr 48 min 53 sec)
Heartbeat CPU 2 instructions: 1330000026 cycles: 332516928 heartbeat IPC: 4 cumulative IPC: 4 (Simulation time: 09 hr 48 min 53 sec)
Heartbeat CPU 3 instructions: 1340000064 cycles: 335014359 heartbeat IPC: 4 cumulative IPC: 4 (Simulation time: 09 hr 53 min 09 sec)
Heartbeat CPU 2 instructions: 1340000026 cycles: 335016928 heartbeat IPC: 4 cumulative IPC: 4 (Simulation time: 09 hr 53 min 09 sec)
Heartbeat CPU 3 instructions: 1350000064 cycles: 337514359 heartbeat IPC: 4 cumulative IPC: 4 (Simulation time: 09 hr 57 min 22 sec)
Heartbeat CPU 2 instructions: 1350000026 cycles: 337516928 heartbeat IPC: 4 cumulative IPC: 4 (Simulation time: 09 hr 57 min 23 sec)
*** Reached end of trace: (2, "traces/ocean_8t/ocean2.champsimtrace")
Heartbeat CPU 0 instructions: 90000021 cycles: 339436238 heartbeat IPC: 0.1435 cumulative IPC: 0.1718 (Simulation time: 10 hr 00 min 41 sec)
Heartbeat CPU 3 instructions: 1360000064 cycles: 340014359 heartbeat IPC: 4 cumulative IPC: 4 (Simulation time: 10 hr 01 min 41 sec)
Heartbeat CPU 2 instructions: 1360000027 cycles: 340016951 heartbeat IPC: 4 cumulative IPC: 4 (Simulation time: 10 hr 01 min 41 sec)
*** Reached end of trace: (3, "traces/ocean_8t/ocean3.champsimtrace")
Heartbeat CPU 1 instructions: 330000040 cycles: 342037334 heartbeat IPC: 0.5978 cumulative IPC: 0.3562 (Simulation time: 10 hr 05 min 19 sec)
Heartbeat CPU 3 instructions: 1370000067 cycles: 342514376 heartbeat IPC: 4 cumulative IPC: 4 (Simulation time: 10 hr 06 min 11 sec)
Heartbeat CPU 2 instructions: 1370000027 cycles: 342516951 heartbeat IPC: 4 cumulative IPC: 4 (Simulation time: 10 hr 06 min 12 sec)
Heartbeat CPU 3 instructions: 1380000067 cycles: 345014376 heartbeat IPC: 4 cumulative IPC: 4 (Simulation time: 10 hr 10 min 44 sec)
Heartbeat CPU 2 instructions: 1380000027 cycles: 345016951 heartbeat IPC: 4 cumulative IPC: 4 (Simulation time: 10 hr 10 min 44 sec)
Heartbeat CPU 3 instructions: 1390000067 cycles: 347514376 heartbeat IPC: 4 cumulative IPC: 4 (Simulation time: 10 hr 15 min 20 sec)
Heartbeat CPU 2 instructions: 1390000027 cycles: 347516951 heartbeat IPC: 4 cumulative IPC: 4 (Simulation time: 10 hr 15 min 20 sec)
*** Reached end of trace: (0, "traces/ocean_8t/ocean0.champsimtrace")
Heartbeat CPU 3 instructions: 1400000067 cycles: 350014376 heartbeat IPC: 4 cumulative IPC: 4 (Simulation time: 10 hr 19 min 42 sec)
Heartbeat CPU 2 instructions: 1400000027 cycles: 350016951 heartbeat IPC: 4 cumulative IPC: 4 (Simulation time: 10 hr 19 min 42 sec)
*** Reached end of trace: (2, "traces/ocean_8t/ocean2.champsimtrace")
*** Reached end of trace: (3, "traces/ocean_8t/ocean3.champsimtrace")
Heartbeat CPU 3 instructions: 1410000070 cycles: 352514393 heartbeat IPC: 4 cumulative IPC: 4 (Simulation time: 10 hr 23 min 58 sec)
Heartbeat CPU 2 instructions: 1410000028 cycles: 352516974 heartbeat IPC: 4 cumulative IPC: 4 (Simulation time: 10 hr 23 min 58 sec)
Heartbeat CPU 3 instructions: 1420000070 cycles: 355014393 heartbeat IPC: 4 cumulative IPC: 4 (Simulation time: 10 hr 28 min 11 sec)
Heartbeat CPU 2 instructions: 1420000028 cycles: 355016974 heartbeat IPC: 4 cumulative IPC: 4 (Simulation time: 10 hr 28 min 11 sec)
Heartbeat CPU 3 instructions: 1430000070 cycles: 357514393 heartbeat IPC: 4 cumulative IPC: 4 (Simulation time: 10 hr 32 min 21 sec)
Heartbeat CPU 2 instructions: 1430000028 cycles: 357516974 heartbeat IPC: 4 cumulative IPC: 4 (Simulation time: 10 hr 32 min 22 sec)
Heartbeat CPU 3 instructions: 1440000070 cycles: 360014393 heartbeat IPC: 4 cumulative IPC: 4 (Simulation time: 10 hr 36 min 27 sec)
Heartbeat CPU 2 instructions: 1440000028 cycles: 360016974 heartbeat IPC: 4 cumulative IPC: 4 (Simulation time: 10 hr 36 min 27 sec)
*** Reached end of trace: (2, "traces/ocean_8t/ocean2.champsimtrace")
Heartbeat CPU 3 instructions: 1450000070 cycles: 362514393 heartbeat IPC: 4 cumulative IPC: 4 (Simulation time: 10 hr 40 min 32 sec)
Heartbeat CPU 2 instructions: 1450000029 cycles: 362516997 heartbeat IPC: 4 cumulative IPC: 4 (Simulation time: 10 hr 40 min 32 sec)
*** Reached end of trace: (3, "traces/ocean_8t/ocean3.champsimtrace")
Heartbeat CPU 1 instructions: 340000042 cycles: 364455063 heartbeat IPC: 0.4461 cumulative IPC: 0.364 (Simulation time: 10 hr 43 min 45 sec)
Heartbeat CPU 3 instructions: 1460000073 cycles: 365014410 heartbeat IPC: 4 cumulative IPC: 4 (Simulation time: 10 hr 44 min 44 sec)
Heartbeat CPU 2 instructions: 1460000029 cycles: 365016997 heartbeat IPC: 4 cumulative IPC: 4 (Simulation time: 10 hr 44 min 45 sec)
Heartbeat CPU 3 instructions: 1470000073 cycles: 367514410 heartbeat IPC: 4 cumulative IPC: 4 (Simulation time: 10 hr 48 min 43 sec)
Heartbeat CPU 2 instructions: 1470000029 cycles: 367516997 heartbeat IPC: 4 cumulative IPC: 4 (Simulation time: 10 hr 48 min 44 sec)
Heartbeat CPU 3 instructions: 1480000073 cycles: 370014410 heartbeat IPC: 4 cumulative IPC: 4 (Simulation time: 10 hr 52 min 35 sec)
Heartbeat CPU 2 instructions: 1480000029 cycles: 370016997 heartbeat IPC: 4 cumulative IPC: 4 (Simulation time: 10 hr 52 min 35 sec)
Heartbeat CPU 3 instructions: 1490000073 cycles: 372514410 heartbeat IPC: 4 cumulative IPC: 4 (Simulation time: 10 hr 56 min 35 sec)
Heartbeat CPU 2 instructions: 1490000029 cycles: 372516997 heartbeat IPC: 4 cumulative IPC: 4 (Simulation time: 10 hr 56 min 36 sec)
*** Reached end of trace: (2, "traces/ocean_8t/ocean2.champsimtrace")
*** Reached end of trace: (3, "traces/ocean_8t/ocean3.champsimtrace")
Heartbeat CPU 3 instructions: 1500000076 cycles: 375014427 heartbeat IPC: 4 cumulative IPC: 4 (Simulation time: 11 hr 00 min 38 sec)
Heartbeat CPU 2 instructions: 1500000030 cycles: 375017020 heartbeat IPC: 4 cumulative IPC: 4 (Simulation time: 11 hr 00 min 39 sec)
Heartbeat CPU 3 instructions: 1510000076 cycles: 377514427 heartbeat IPC: 4 cumulative IPC: 4 (Simulation time: 11 hr 04 min 39 sec)
Heartbeat CPU 2 instructions: 1510000030 cycles: 377517020 heartbeat IPC: 4 cumulative IPC: 4 (Simulation time: 11 hr 04 min 39 sec)
Heartbeat CPU 0 instructions: 100000022 cycles: 377815156 heartbeat IPC: 0.2606 cumulative IPC: 0.1844 (Simulation time: 11 hr 05 min 11 sec)
Heartbeat CPU 3 instructions: 1520000076 cycles: 380014427 heartbeat IPC: 4 cumulative IPC: 4 (Simulation time: 11 hr 08 min 46 sec)
Heartbeat CPU 2 instructions: 1520000030 cycles: 380017020 heartbeat IPC: 4 cumulative IPC: 4 (Simulation time: 11 hr 08 min 47 sec)
Simulation finished CPU 1 instructions: 100000000 cycles: 275822993 cumulative IPC: 0.3626 (Simulation time: 11 hr 12 min 57 sec)
Heartbeat CPU 3 instructions: 1530000076 cycles: 382514427 heartbeat IPC: 4 cumulative IPC: 4 (Simulation time: 11 hr 13 min 00 sec)
Heartbeat CPU 2 instructions: 1530000030 cycles: 382517020 heartbeat IPC: 4 cumulative IPC: 4 (Simulation time: 11 hr 13 min 00 sec)
*** Reached end of trace: (2, "traces/ocean_8t/ocean2.champsimtrace")
Heartbeat CPU 3 instructions: 1540000076 cycles: 385014427 heartbeat IPC: 4 cumulative IPC: 4 (Simulation time: 11 hr 17 min 02 sec)
Heartbeat CPU 2 instructions: 1540000031 cycles: 385017043 heartbeat IPC: 4 cumulative IPC: 4 (Simulation time: 11 hr 17 min 02 sec)
*** Reached end of trace: (3, "traces/ocean_8t/ocean3.champsimtrace")
Heartbeat CPU 3 instructions: 1550000079 cycles: 387514444 heartbeat IPC: 4 cumulative IPC: 4 (Simulation time: 11 hr 20 min 58 sec)
Heartbeat CPU 2 instructions: 1550000031 cycles: 387517043 heartbeat IPC: 4 cumulative IPC: 4 (Simulation time: 11 hr 20 min 59 sec)
Heartbeat CPU 3 instructions: 1560000079 cycles: 390014444 heartbeat IPC: 4 cumulative IPC: 4 (Simulation time: 11 hr 24 min 55 sec)
Heartbeat CPU 2 instructions: 1560000031 cycles: 390017043 heartbeat IPC: 4 cumulative IPC: 4 (Simulation time: 11 hr 24 min 55 sec)
Heartbeat CPU 3 instructions: 1570000079 cycles: 392514444 heartbeat IPC: 4 cumulative IPC: 4 (Simulation time: 11 hr 28 min 50 sec)
Heartbeat CPU 2 instructions: 1570000031 cycles: 392517043 heartbeat IPC: 4 cumulative IPC: 4 (Simulation time: 11 hr 28 min 50 sec)
Heartbeat CPU 3 instructions: 1580000079 cycles: 395014444 heartbeat IPC: 4 cumulative IPC: 4 (Simulation time: 11 hr 32 min 51 sec)
Heartbeat CPU 2 instructions: 1580000031 cycles: 395017043 heartbeat IPC: 4 cumulative IPC: 4 (Simulation time: 11 hr 32 min 52 sec)
*** Reached end of trace: (2, "traces/ocean_8t/ocean2.champsimtrace")
*** Reached end of trace: (3, "traces/ocean_8t/ocean3.champsimtrace")
Heartbeat CPU 3 instructions: 1590000082 cycles: 397514461 heartbeat IPC: 4 cumulative IPC: 4 (Simulation time: 11 hr 36 min 51 sec)
Heartbeat CPU 2 instructions: 1590000032 cycles: 397517066 heartbeat IPC: 4 cumulative IPC: 4 (Simulation time: 11 hr 36 min 51 sec)
Heartbeat CPU 3 instructions: 1600000082 cycles: 400014461 heartbeat IPC: 4 cumulative IPC: 4 (Simulation time: 11 hr 40 min 49 sec)
Heartbeat CPU 2 instructions: 1600000032 cycles: 400017066 heartbeat IPC: 4 cumulative IPC: 4 (Simulation time: 11 hr 40 min 49 sec)
Heartbeat CPU 1 instructions: 350000042 cycles: 401611960 heartbeat IPC: 0.2691 cumulative IPC: 0.3521 (Simulation time: 11 hr 43 min 39 sec)
Heartbeat CPU 3 instructions: 1610000082 cycles: 402514461 heartbeat IPC: 4 cumulative IPC: 4 (Simulation time: 11 hr 45 min 08 sec)
Heartbeat CPU 2 instructions: 1610000032 cycles: 402517066 heartbeat IPC: 4 cumulative IPC: 4 (Simulation time: 11 hr 45 min 08 sec)
Heartbeat CPU 3 instructions: 1620000082 cycles: 405014461 heartbeat IPC: 4 cumulative IPC: 4 (Simulation time: 11 hr 49 min 19 sec)
Heartbeat CPU 2 instructions: 1620000032 cycles: 405017066 heartbeat IPC: 4 cumulative IPC: 4 (Simulation time: 11 hr 49 min 20 sec)
*** Reached end of trace: (2, "traces/ocean_8t/ocean2.champsimtrace")
Heartbeat CPU 3 instructions: 1630000082 cycles: 407514461 heartbeat IPC: 4 cumulative IPC: 4 (Simulation time: 11 hr 53 min 23 sec)
Heartbeat CPU 2 instructions: 1630000033 cycles: 407517089 heartbeat IPC: 4 cumulative IPC: 4 (Simulation time: 11 hr 53 min 23 sec)
*** Reached end of trace: (3, "traces/ocean_8t/ocean3.champsimtrace")
Heartbeat CPU 3 instructions: 1640000085 cycles: 410014478 heartbeat IPC: 4 cumulative IPC: 4 (Simulation time: 11 hr 57 min 31 sec)
Heartbeat CPU 2 instructions: 1640000033 cycles: 410017089 heartbeat IPC: 4 cumulative IPC: 4 (Simulation time: 11 hr 57 min 31 sec)
Heartbeat CPU 3 instructions: 1650000085 cycles: 412514478 heartbeat IPC: 4 cumulative IPC: 4 (Simulation time: 12 hr 01 min 37 sec)
Heartbeat CPU 2 instructions: 1650000033 cycles: 412517089 heartbeat IPC: 4 cumulative IPC: 4 (Simulation time: 12 hr 01 min 38 sec)
Heartbeat CPU 3 instructions: 1660000085 cycles: 415014478 heartbeat IPC: 4 cumulative IPC: 4 (Simulation time: 12 hr 05 min 48 sec)
Heartbeat CPU 2 instructions: 1660000033 cycles: 415017089 heartbeat IPC: 4 cumulative IPC: 4 (Simulation time: 12 hr 05 min 48 sec)
Heartbeat CPU 3 instructions: 1670000085 cycles: 417514478 heartbeat IPC: 4 cumulative IPC: 4 (Simulation time: 12 hr 10 min 02 sec)
Heartbeat CPU 2 instructions: 1670000033 cycles: 417517089 heartbeat IPC: 4 cumulative IPC: 4 (Simulation time: 12 hr 10 min 02 sec)
*** Reached end of trace: (2, "traces/ocean_8t/ocean2.champsimtrace")
*** Reached end of trace: (3, "traces/ocean_8t/ocean3.champsimtrace")
Heartbeat CPU 3 instructions: 1680000088 cycles: 420014495 heartbeat IPC: 4 cumulative IPC: 4 (Simulation time: 12 hr 14 min 20 sec)
Heartbeat CPU 2 instructions: 1680000034 cycles: 420017112 heartbeat IPC: 4 cumulative IPC: 4 (Simulation time: 12 hr 14 min 21 sec)
Heartbeat CPU 3 instructions: 1690000088 cycles: 422514495 heartbeat IPC: 4 cumulative IPC: 4 (Simulation time: 12 hr 18 min 32 sec)
Heartbeat CPU 2 instructions: 1690000034 cycles: 422517112 heartbeat IPC: 4 cumulative IPC: 4 (Simulation time: 12 hr 18 min 32 sec)
Heartbeat CPU 3 instructions: 1700000088 cycles: 425014495 heartbeat IPC: 4 cumulative IPC: 4 (Simulation time: 12 hr 22 min 46 sec)
Heartbeat CPU 2 instructions: 1700000034 cycles: 425017112 heartbeat IPC: 4 cumulative IPC: 4 (Simulation time: 12 hr 22 min 47 sec)
Heartbeat CPU 0 instructions: 110000022 cycles: 427098868 heartbeat IPC: 0.2029 cumulative IPC: 0.1872 (Simulation time: 12 hr 26 min 17 sec)
Heartbeat CPU 3 instructions: 1710000088 cycles: 427514495 heartbeat IPC: 4 cumulative IPC: 4 (Simulation time: 12 hr 26 min 59 sec)
Heartbeat CPU 2 instructions: 1710000034 cycles: 427517112 heartbeat IPC: 4 cumulative IPC: 4 (Simulation time: 12 hr 27 min 00 sec)
*** Reached end of trace: (2, "traces/ocean_8t/ocean2.champsimtrace")
Heartbeat CPU 3 instructions: 1720000088 cycles: 430014495 heartbeat IPC: 4 cumulative IPC: 4 (Simulation time: 12 hr 31 min 06 sec)
Heartbeat CPU 2 instructions: 1720000035 cycles: 430017135 heartbeat IPC: 4 cumulative IPC: 4 (Simulation time: 12 hr 31 min 06 sec)
*** Reached end of trace: (3, "traces/ocean_8t/ocean3.champsimtrace")
Heartbeat CPU 1 instructions: 360000042 cycles: 431522122 heartbeat IPC: 0.3343 cumulative IPC: 0.3504 (Simulation time: 12 hr 33 min 38 sec)
Heartbeat CPU 3 instructions: 1730000091 cycles: 432514512 heartbeat IPC: 4 cumulative IPC: 4 (Simulation time: 12 hr 35 min 17 sec)
Heartbeat CPU 2 instructions: 1730000035 cycles: 432517135 heartbeat IPC: 4 cumulative IPC: 4 (Simulation time: 12 hr 35 min 17 sec)
Heartbeat CPU 3 instructions: 1740000091 cycles: 435014512 heartbeat IPC: 4 cumulative IPC: 4 (Simulation time: 12 hr 39 min 31 sec)
Heartbeat CPU 2 instructions: 1740000035 cycles: 435017135 heartbeat IPC: 4 cumulative IPC: 4 (Simulation time: 12 hr 39 min 31 sec)
Heartbeat CPU 3 instructions: 1750000091 cycles: 437514512 heartbeat IPC: 4 cumulative IPC: 4 (Simulation time: 12 hr 43 min 47 sec)
Heartbeat CPU 2 instructions: 1750000035 cycles: 437517135 heartbeat IPC: 4 cumulative IPC: 4 (Simulation time: 12 hr 43 min 47 sec)
Heartbeat CPU 3 instructions: 1760000091 cycles: 440014512 heartbeat IPC: 4 cumulative IPC: 4 (Simulation time: 12 hr 48 min 03 sec)
Heartbeat CPU 2 instructions: 1760000035 cycles: 440017135 heartbeat IPC: 4 cumulative IPC: 4 (Simulation time: 12 hr 48 min 03 sec)
*** Reached end of trace: (2, "traces/ocean_8t/ocean2.champsimtrace")
*** Reached end of trace: (1, "traces/ocean_8t/ocean1.champsimtrace")
Heartbeat CPU 3 instructions: 1770000091 cycles: 442514512 heartbeat IPC: 4 cumulative IPC: 4 (Simulation time: 12 hr 52 min 23 sec)
Heartbeat CPU 2 instructions: 1770000036 cycles: 442517158 heartbeat IPC: 4 cumulative IPC: 4 (Simulation time: 12 hr 52 min 23 sec)
*** Reached end of trace: (3, "traces/ocean_8t/ocean3.champsimtrace")
Heartbeat CPU 3 instructions: 1780000094 cycles: 445014529 heartbeat IPC: 4 cumulative IPC: 4 (Simulation time: 12 hr 56 min 46 sec)
Heartbeat CPU 2 instructions: 1780000036 cycles: 445017158 heartbeat IPC: 4 cumulative IPC: 4 (Simulation time: 12 hr 56 min 46 sec)
Heartbeat CPU 3 instructions: 1790000094 cycles: 447514529 heartbeat IPC: 4 cumulative IPC: 4 (Simulation time: 13 hr 01 min 12 sec)
Heartbeat CPU 2 instructions: 1790000036 cycles: 447517158 heartbeat IPC: 4 cumulative IPC: 4 (Simulation time: 13 hr 01 min 12 sec)
Heartbeat CPU 1 instructions: 370000044 cycles: 448541895 heartbeat IPC: 0.5876 cumulative IPC: 0.3622 (Simulation time: 13 hr 02 min 55 sec)
Heartbeat CPU 3 instructions: 1800000094 cycles: 450014529 heartbeat IPC: 4 cumulative IPC: 4 (Simulation time: 13 hr 05 min 29 sec)
Heartbeat CPU 2 instructions: 1800000036 cycles: 450017158 heartbeat IPC: 4 cumulative IPC: 4 (Simulation time: 13 hr 05 min 29 sec)
*** Reached end of trace: (2, "traces/ocean_8t/ocean2.champsimtrace")
Heartbeat CPU 3 instructions: 1810000094 cycles: 452514529 heartbeat IPC: 4 cumulative IPC: 4 (Simulation time: 13 hr 09 min 41 sec)
Heartbeat CPU 2 instructions: 1810000037 cycles: 452517181 heartbeat IPC: 4 cumulative IPC: 4 (Simulation time: 13 hr 09 min 41 sec)
*** Reached end of trace: (3, "traces/ocean_8t/ocean3.champsimtrace")
Heartbeat CPU 3 instructions: 1820000097 cycles: 455014546 heartbeat IPC: 4 cumulative IPC: 4 (Simulation time: 13 hr 13 min 56 sec)
Heartbeat CPU 2 instructions: 1820000037 cycles: 455017181 heartbeat IPC: 4 cumulative IPC: 4 (Simulation time: 13 hr 13 min 56 sec)
Heartbeat CPU 3 instructions: 1830000097 cycles: 457514546 heartbeat IPC: 4 cumulative IPC: 4 (Simulation time: 13 hr 18 min 00 sec)
Heartbeat CPU 2 instructions: 1830000037 cycles: 457517181 heartbeat IPC: 4 cumulative IPC: 4 (Simulation time: 13 hr 18 min 00 sec)
Heartbeat CPU 3 instructions: 1840000097 cycles: 460014546 heartbeat IPC: 4 cumulative IPC: 4 (Simulation time: 13 hr 22 min 10 sec)
Heartbeat CPU 2 instructions: 1840000037 cycles: 460017181 heartbeat IPC: 4 cumulative IPC: 4 (Simulation time: 13 hr 22 min 10 sec)
Heartbeat CPU 3 instructions: 1850000097 cycles: 462514546 heartbeat IPC: 4 cumulative IPC: 4 (Simulation time: 13 hr 26 min 18 sec)
Heartbeat CPU 2 instructions: 1850000037 cycles: 462517181 heartbeat IPC: 4 cumulative IPC: 4 (Simulation time: 13 hr 26 min 19 sec)
*** Reached end of trace: (2, "traces/ocean_8t/ocean2.champsimtrace")
Heartbeat CPU 3 instructions: 1860000097 cycles: 465014546 heartbeat IPC: 4 cumulative IPC: 4 (Simulation time: 13 hr 30 min 25 sec)
Heartbeat CPU 2 instructions: 1860000038 cycles: 465017204 heartbeat IPC: 4 cumulative IPC: 4 (Simulation time: 13 hr 30 min 25 sec)
*** Reached end of trace: (3, "traces/ocean_8t/ocean3.champsimtrace")
Heartbeat CPU 3 instructions: 1870000100 cycles: 467514563 heartbeat IPC: 4 cumulative IPC: 4 (Simulation time: 13 hr 34 min 45 sec)
Heartbeat CPU 2 instructions: 1870000038 cycles: 467517204 heartbeat IPC: 4 cumulative IPC: 4 (Simulation time: 13 hr 34 min 45 sec)
Heartbeat CPU 3 instructions: 1880000100 cycles: 470014563 heartbeat IPC: 4 cumulative IPC: 4 (Simulation time: 13 hr 39 min 00 sec)
Heartbeat CPU 2 instructions: 1880000038 cycles: 470017204 heartbeat IPC: 4 cumulative IPC: 4 (Simulation time: 13 hr 39 min 00 sec)
Heartbeat CPU 1 instructions: 380000044 cycles: 470537399 heartbeat IPC: 0.4546 cumulative IPC: 0.3678 (Simulation time: 13 hr 39 min 51 sec)
Heartbeat CPU 3 instructions: 1890000100 cycles: 472514563 heartbeat IPC: 4 cumulative IPC: 4 (Simulation time: 13 hr 43 min 21 sec)
Heartbeat CPU 2 instructions: 1890000038 cycles: 472517204 heartbeat IPC: 4 cumulative IPC: 4 (Simulation time: 13 hr 43 min 21 sec)
*** Reached end of trace: (2, "traces/ocean_8t/ocean2.champsimtrace")
Heartbeat CPU 3 instructions: 1900000100 cycles: 475014563 heartbeat IPC: 4 cumulative IPC: 4 (Simulation time: 13 hr 47 min 27 sec)
Heartbeat CPU 2 instructions: 1900000039 cycles: 475017227 heartbeat IPC: 4 cumulative IPC: 4 (Simulation time: 13 hr 47 min 28 sec)
*** Reached end of trace: (3, "traces/ocean_8t/ocean3.champsimtrace")
Heartbeat CPU 3 instructions: 1910000103 cycles: 477514580 heartbeat IPC: 4 cumulative IPC: 4 (Simulation time: 13 hr 51 min 33 sec)
Heartbeat CPU 2 instructions: 1910000039 cycles: 477517227 heartbeat IPC: 4 cumulative IPC: 4 (Simulation time: 13 hr 51 min 33 sec)
Heartbeat CPU 3 instructions: 1920000103 cycles: 480014580 heartbeat IPC: 4 cumulative IPC: 4 (Simulation time: 13 hr 55 min 44 sec)
Heartbeat CPU 2 instructions: 1920000039 cycles: 480017227 heartbeat IPC: 4 cumulative IPC: 4 (Simulation time: 13 hr 55 min 44 sec)
Heartbeat CPU 3 instructions: 1930000103 cycles: 482514580 heartbeat IPC: 4 cumulative IPC: 4 (Simulation time: 13 hr 59 min 54 sec)
Heartbeat CPU 2 instructions: 1930000039 cycles: 482517227 heartbeat IPC: 4 cumulative IPC: 4 (Simulation time: 13 hr 59 min 54 sec)
Heartbeat CPU 3 instructions: 1940000103 cycles: 485014580 heartbeat IPC: 4 cumulative IPC: 4 (Simulation time: 14 hr 04 min 15 sec)
Heartbeat CPU 2 instructions: 1940000039 cycles: 485017227 heartbeat IPC: 4 cumulative IPC: 4 (Simulation time: 14 hr 04 min 15 sec)
*** Reached end of trace: (2, "traces/ocean_8t/ocean2.champsimtrace")
Heartbeat CPU 3 instructions: 1950000103 cycles: 487514580 heartbeat IPC: 4 cumulative IPC: 4 (Simulation time: 14 hr 08 min 31 sec)
Heartbeat CPU 2 instructions: 1950000040 cycles: 487517250 heartbeat IPC: 4 cumulative IPC: 4 (Simulation time: 14 hr 08 min 31 sec)
*** Reached end of trace: (3, "traces/ocean_8t/ocean3.champsimtrace")
Heartbeat CPU 3 instructions: 1960000106 cycles: 490014597 heartbeat IPC: 4 cumulative IPC: 4 (Simulation time: 14 hr 12 min 46 sec)
Heartbeat CPU 2 instructions: 1960000040 cycles: 490017250 heartbeat IPC: 4 cumulative IPC: 4 (Simulation time: 14 hr 12 min 46 sec)
Heartbeat CPU 3 instructions: 1970000106 cycles: 492514597 heartbeat IPC: 4 cumulative IPC: 4 (Simulation time: 14 hr 16 min 58 sec)
Heartbeat CPU 2 instructions: 1970000040 cycles: 492517250 heartbeat IPC: 4 cumulative IPC: 4 (Simulation time: 14 hr 16 min 59 sec)
Heartbeat CPU 0 instructions: 120000023 cycles: 493651519 heartbeat IPC: 0.1503 cumulative IPC: 0.1809 (Simulation time: 14 hr 18 min 50 sec)
Heartbeat CPU 3 instructions: 1980000106 cycles: 495014597 heartbeat IPC: 4 cumulative IPC: 4 (Simulation time: 14 hr 21 min 07 sec)
Heartbeat CPU 2 instructions: 1980000040 cycles: 495017250 heartbeat IPC: 4 cumulative IPC: 4 (Simulation time: 14 hr 21 min 08 sec)
*** Reached end of trace: (2, "traces/ocean_8t/ocean2.champsimtrace")
Heartbeat CPU 3 instructions: 1990000106 cycles: 497514597 heartbeat IPC: 4 cumulative IPC: 4 (Simulation time: 14 hr 25 min 16 sec)
Heartbeat CPU 2 instructions: 1990000041 cycles: 497517273 heartbeat IPC: 4 cumulative IPC: 4 (Simulation time: 14 hr 25 min 16 sec)
*** Reached end of trace: (3, "traces/ocean_8t/ocean3.champsimtrace")
Heartbeat CPU 3 instructions: 2000000109 cycles: 500014614 heartbeat IPC: 4 cumulative IPC: 4 (Simulation time: 14 hr 29 min 26 sec)
Heartbeat CPU 2 instructions: 2000000041 cycles: 500017273 heartbeat IPC: 4 cumulative IPC: 4 (Simulation time: 14 hr 29 min 26 sec)
Heartbeat CPU 3 instructions: 2010000109 cycles: 502514614 heartbeat IPC: 4 cumulative IPC: 4 (Simulation time: 14 hr 33 min 39 sec)
Heartbeat CPU 2 instructions: 2010000041 cycles: 502517273 heartbeat IPC: 4 cumulative IPC: 4 (Simulation time: 14 hr 33 min 39 sec)
Heartbeat CPU 3 instructions: 2020000109 cycles: 505014614 heartbeat IPC: 4 cumulative IPC: 4 (Simulation time: 14 hr 37 min 52 sec)
Heartbeat CPU 2 instructions: 2020000041 cycles: 505017273 heartbeat IPC: 4 cumulative IPC: 4 (Simulation time: 14 hr 37 min 53 sec)
Heartbeat CPU 1 instructions: 390000044 cycles: 505258655 heartbeat IPC: 0.288 cumulative IPC: 0.3609 (Simulation time: 14 hr 38 min 18 sec)
Heartbeat CPU 3 instructions: 2030000109 cycles: 507514614 heartbeat IPC: 4 cumulative IPC: 4 (Simulation time: 14 hr 42 min 13 sec)
Heartbeat CPU 2 instructions: 2030000041 cycles: 507517273 heartbeat IPC: 4 cumulative IPC: 4 (Simulation time: 14 hr 42 min 13 sec)
*** Reached end of trace: (2, "traces/ocean_8t/ocean2.champsimtrace")
Heartbeat CPU 3 instructions: 2040000109 cycles: 510014614 heartbeat IPC: 4 cumulative IPC: 4 (Simulation time: 14 hr 46 min 26 sec)
Heartbeat CPU 2 instructions: 2040000042 cycles: 510017296 heartbeat IPC: 4 cumulative IPC: 4 (Simulation time: 14 hr 46 min 26 sec)
*** Reached end of trace: (3, "traces/ocean_8t/ocean3.champsimtrace")
Heartbeat CPU 3 instructions: 2050000112 cycles: 512514631 heartbeat IPC: 4 cumulative IPC: 4 (Simulation time: 14 hr 50 min 43 sec)
Heartbeat CPU 2 instructions: 2050000042 cycles: 512517296 heartbeat IPC: 4 cumulative IPC: 4 (Simulation time: 14 hr 50 min 43 sec)
Heartbeat CPU 3 instructions: 2060000112 cycles: 515014631 heartbeat IPC: 4 cumulative IPC: 4 (Simulation time: 14 hr 54 min 59 sec)
Heartbeat CPU 2 instructions: 2060000042 cycles: 515017296 heartbeat IPC: 4 cumulative IPC: 4 (Simulation time: 14 hr 55 min 00 sec)
Heartbeat CPU 3 instructions: 2070000112 cycles: 517514631 heartbeat IPC: 4 cumulative IPC: 4 (Simulation time: 14 hr 59 min 08 sec)
Heartbeat CPU 2 instructions: 2070000042 cycles: 517517296 heartbeat IPC: 4 cumulative IPC: 4 (Simulation time: 14 hr 59 min 09 sec)
*** Reached end of trace: (2, "traces/ocean_8t/ocean2.champsimtrace")
Heartbeat CPU 3 instructions: 2080000112 cycles: 520014631 heartbeat IPC: 4 cumulative IPC: 4 (Simulation time: 15 hr 03 min 13 sec)
Heartbeat CPU 2 instructions: 2080000043 cycles: 520017319 heartbeat IPC: 4 cumulative IPC: 4 (Simulation time: 15 hr 03 min 13 sec)
*** Reached end of trace: (3, "traces/ocean_8t/ocean3.champsimtrace")
Heartbeat CPU 3 instructions: 2090000115 cycles: 522514648 heartbeat IPC: 4 cumulative IPC: 4 (Simulation time: 15 hr 07 min 07 sec)
Heartbeat CPU 2 instructions: 2090000043 cycles: 522517319 heartbeat IPC: 4 cumulative IPC: 4 (Simulation time: 15 hr 07 min 08 sec)
Heartbeat CPU 3 instructions: 2100000115 cycles: 525014648 heartbeat IPC: 4 cumulative IPC: 4 (Simulation time: 15 hr 11 min 06 sec)
Heartbeat CPU 2 instructions: 2100000043 cycles: 525017319 heartbeat IPC: 4 cumulative IPC: 4 (Simulation time: 15 hr 11 min 06 sec)
Heartbeat CPU 3 instructions: 2110000115 cycles: 527514648 heartbeat IPC: 4 cumulative IPC: 4 (Simulation time: 15 hr 15 min 04 sec)
Heartbeat CPU 2 instructions: 2110000043 cycles: 527517319 heartbeat IPC: 4 cumulative IPC: 4 (Simulation time: 15 hr 15 min 04 sec)
Heartbeat CPU 3 instructions: 2120000115 cycles: 530014648 heartbeat IPC: 4 cumulative IPC: 4 (Simulation time: 15 hr 19 min 12 sec)
Heartbeat CPU 2 instructions: 2120000043 cycles: 530017319 heartbeat IPC: 4 cumulative IPC: 4 (Simulation time: 15 hr 19 min 12 sec)
*** Reached end of trace: (2, "traces/ocean_8t/ocean2.champsimtrace")
Heartbeat CPU 3 instructions: 2130000115 cycles: 532514648 heartbeat IPC: 4 cumulative IPC: 4 (Simulation time: 15 hr 23 min 15 sec)
Heartbeat CPU 2 instructions: 2130000044 cycles: 532517342 heartbeat IPC: 4 cumulative IPC: 4 (Simulation time: 15 hr 23 min 15 sec)
*** Reached end of trace: (3, "traces/ocean_8t/ocean3.champsimtrace")
Heartbeat CPU 3 instructions: 2140000118 cycles: 535014665 heartbeat IPC: 4 cumulative IPC: 4 (Simulation time: 15 hr 27 min 10 sec)
Heartbeat CPU 2 instructions: 2140000044 cycles: 535017342 heartbeat IPC: 4 cumulative IPC: 4 (Simulation time: 15 hr 27 min 10 sec)
Heartbeat CPU 3 instructions: 2150000118 cycles: 537514665 heartbeat IPC: 4 cumulative IPC: 4 (Simulation time: 15 hr 31 min 14 sec)
Heartbeat CPU 2 instructions: 2150000044 cycles: 537517342 heartbeat IPC: 4 cumulative IPC: 4 (Simulation time: 15 hr 31 min 14 sec)
Heartbeat CPU 3 instructions: 2160000118 cycles: 540014665 heartbeat IPC: 4 cumulative IPC: 4 (Simulation time: 15 hr 35 min 20 sec)
Heartbeat CPU 2 instructions: 2160000044 cycles: 540017342 heartbeat IPC: 4 cumulative IPC: 4 (Simulation time: 15 hr 35 min 20 sec)
*** Reached end of trace: (2, "traces/ocean_8t/ocean2.champsimtrace")
Heartbeat CPU 3 instructions: 2170000118 cycles: 542514665 heartbeat IPC: 4 cumulative IPC: 4 (Simulation time: 15 hr 39 min 19 sec)
Heartbeat CPU 2 instructions: 2170000045 cycles: 542517365 heartbeat IPC: 4 cumulative IPC: 4 (Simulation time: 15 hr 39 min 19 sec)
Heartbeat CPU 1 instructions: 400000044 cycles: 543517794 heartbeat IPC: 0.2614 cumulative IPC: 0.3522 (Simulation time: 15 hr 40 min 57 sec)
*** Reached end of trace: (3, "traces/ocean_8t/ocean3.champsimtrace")
Heartbeat CPU 3 instructions: 2180000121 cycles: 545014682 heartbeat IPC: 4 cumulative IPC: 4 (Simulation time: 15 hr 43 min 20 sec)
Heartbeat CPU 2 instructions: 2180000045 cycles: 545017365 heartbeat IPC: 4 cumulative IPC: 4 (Simulation time: 15 hr 43 min 21 sec)
Heartbeat CPU 3 instructions: 2190000121 cycles: 547514682 heartbeat IPC: 4 cumulative IPC: 4 (Simulation time: 15 hr 47 min 22 sec)
Heartbeat CPU 2 instructions: 2190000045 cycles: 547517365 heartbeat IPC: 4 cumulative IPC: 4 (Simulation time: 15 hr 47 min 23 sec)
Heartbeat CPU 3 instructions: 2200000121 cycles: 550014682 heartbeat IPC: 4 cumulative IPC: 4 (Simulation time: 15 hr 51 min 30 sec)
Heartbeat CPU 2 instructions: 2200000045 cycles: 550017365 heartbeat IPC: 4 cumulative IPC: 4 (Simulation time: 15 hr 51 min 30 sec)
Heartbeat CPU 3 instructions: 2210000121 cycles: 552514682 heartbeat IPC: 4 cumulative IPC: 4 (Simulation time: 15 hr 55 min 30 sec)
Heartbeat CPU 2 instructions: 2210000045 cycles: 552517365 heartbeat IPC: 4 cumulative IPC: 4 (Simulation time: 15 hr 55 min 31 sec)
*** Reached end of trace: (2, "traces/ocean_8t/ocean2.champsimtrace")
Heartbeat CPU 3 instructions: 2220000121 cycles: 555014682 heartbeat IPC: 4 cumulative IPC: 4 (Simulation time: 15 hr 59 min 29 sec)
Heartbeat CPU 2 instructions: 2220000046 cycles: 555017388 heartbeat IPC: 4 cumulative IPC: 4 (Simulation time: 15 hr 59 min 29 sec)
Heartbeat CPU 0 instructions: 130000027 cycles: 555246483 heartbeat IPC: 0.1624 cumulative IPC: 0.1783 (Simulation time: 15 hr 59 min 53 sec)
*** Reached end of trace: (3, "traces/ocean_8t/ocean3.champsimtrace")
Heartbeat CPU 3 instructions: 2230000124 cycles: 557514699 heartbeat IPC: 4 cumulative IPC: 4 (Simulation time: 16 hr 03 min 39 sec)
Heartbeat CPU 2 instructions: 2230000046 cycles: 557517388 heartbeat IPC: 4 cumulative IPC: 4 (Simulation time: 16 hr 03 min 39 sec)
Heartbeat CPU 3 instructions: 2240000124 cycles: 560014699 heartbeat IPC: 4 cumulative IPC: 4 (Simulation time: 16 hr 07 min 41 sec)
Heartbeat CPU 2 instructions: 2240000046 cycles: 560017388 heartbeat IPC: 4 cumulative IPC: 4 (Simulation time: 16 hr 07 min 41 sec)
Heartbeat CPU 3 instructions: 2250000124 cycles: 562514699 heartbeat IPC: 4 cumulative IPC: 4 (Simulation time: 16 hr 11 min 43 sec)
Heartbeat CPU 2 instructions: 2250000046 cycles: 562517388 heartbeat IPC: 4 cumulative IPC: 4 (Simulation time: 16 hr 11 min 44 sec)
*** Reached end of trace: (2, "traces/ocean_8t/ocean2.champsimtrace")
Heartbeat CPU 3 instructions: 2260000124 cycles: 565014699 heartbeat IPC: 4 cumulative IPC: 4 (Simulation time: 16 hr 15 min 45 sec)
Heartbeat CPU 2 instructions: 2260000047 cycles: 565017411 heartbeat IPC: 4 cumulative IPC: 4 (Simulation time: 16 hr 15 min 46 sec)
Heartbeat CPU 3 instructions: 2270000124 cycles: 567514699 heartbeat IPC: 4 cumulative IPC: 4 (Simulation time: 16 hr 19 min 49 sec)
Heartbeat CPU 2 instructions: 2270000047 cycles: 567517411 heartbeat IPC: 4 cumulative IPC: 4 (Simulation time: 16 hr 19 min 49 sec)
*** Reached end of trace: (3, "traces/ocean_8t/ocean3.champsimtrace")
Heartbeat CPU 3 instructions: 2280000127 cycles: 570014716 heartbeat IPC: 4 cumulative IPC: 4 (Simulation time: 16 hr 23 min 54 sec)
Heartbeat CPU 2 instructions: 2280000047 cycles: 570017411 heartbeat IPC: 4 cumulative IPC: 4 (Simulation time: 16 hr 23 min 54 sec)
*** Reached end of trace: (1, "traces/ocean_8t/ocean1.champsimtrace")
Heartbeat CPU 1 instructions: 410000044 cycles: 572342331 heartbeat IPC: 0.3469 cumulative IPC: 0.3518 (Simulation time: 16 hr 27 min 42 sec)
Heartbeat CPU 3 instructions: 2290000127 cycles: 572514716 heartbeat IPC: 4 cumulative IPC: 4 (Simulation time: 16 hr 27 min 57 sec)
Heartbeat CPU 2 instructions: 2290000047 cycles: 572517411 heartbeat IPC: 4 cumulative IPC: 4 (Simulation time: 16 hr 27 min 57 sec)
Heartbeat CPU 3 instructions: 2300000127 cycles: 575014716 heartbeat IPC: 4 cumulative IPC: 4 (Simulation time: 16 hr 31 min 52 sec)
Heartbeat CPU 2 instructions: 2300000047 cycles: 575017411 heartbeat IPC: 4 cumulative IPC: 4 (Simulation time: 16 hr 31 min 52 sec)
*** Reached end of trace: (2, "traces/ocean_8t/ocean2.champsimtrace")
Heartbeat CPU 3 instructions: 2310000127 cycles: 577514716 heartbeat IPC: 4 cumulative IPC: 4 (Simulation time: 16 hr 35 min 53 sec)
Heartbeat CPU 2 instructions: 2310000048 cycles: 577517434 heartbeat IPC: 4 cumulative IPC: 4 (Simulation time: 16 hr 35 min 53 sec)
*** Reached end of trace: (3, "traces/ocean_8t/ocean3.champsimtrace")
Heartbeat CPU 3 instructions: 2320000130 cycles: 580014733 heartbeat IPC: 4 cumulative IPC: 4 (Simulation time: 16 hr 40 min 06 sec)
Heartbeat CPU 2 instructions: 2320000048 cycles: 580017434 heartbeat IPC: 4 cumulative IPC: 4 (Simulation time: 16 hr 40 min 06 sec)
Heartbeat CPU 3 instructions: 2330000130 cycles: 582514733 heartbeat IPC: 4 cumulative IPC: 4 (Simulation time: 16 hr 44 min 11 sec)
Heartbeat CPU 2 instructions: 2330000048 cycles: 582517434 heartbeat IPC: 4 cumulative IPC: 4 (Simulation time: 16 hr 44 min 11 sec)
Heartbeat CPU 3 instructions: 2340000130 cycles: 585014733 heartbeat IPC: 4 cumulative IPC: 4 (Simulation time: 16 hr 48 min 05 sec)
Heartbeat CPU 2 instructions: 2340000048 cycles: 585017434 heartbeat IPC: 4 cumulative IPC: 4 (Simulation time: 16 hr 48 min 06 sec)
*** Reached end of trace: (2, "traces/ocean_8t/ocean2.champsimtrace")
Heartbeat CPU 3 instructions: 2350000130 cycles: 587514733 heartbeat IPC: 4 cumulative IPC: 4 (Simulation time: 16 hr 51 min 53 sec)
Heartbeat CPU 2 instructions: 2350000049 cycles: 587517457 heartbeat IPC: 4 cumulative IPC: 4 (Simulation time: 16 hr 51 min 54 sec)
Heartbeat CPU 1 instructions: 420000044 cycles: 588462869 heartbeat IPC: 0.6203 cumulative IPC: 0.3608 (Simulation time: 16 hr 53 min 21 sec)
[...]
CPU 2 Branch Prediction Accuracy: -% MPKI: 0 Average ROB Occupancy at Mispredict: -
Branch type MPKI
BRANCH_DIRECT_JUMP: 0
BRANCH_INDIRECT: 0
BRANCH_CONDITIONAL: 0
BRANCH_DIRECT_CALL: 0
BRANCH_INDIRECT_CALL: 0
BRANCH_RETURN: 0


CPU 1 cumulative IPC: 0.3626 instructions: 100000000 cycles: 275822993
CPU 1 Branch Prediction Accuracy: -% MPKI: 0 Average ROB Occupancy at Mispredict: -
Branch type MPKI
BRANCH_DIRECT_JUMP: 0
BRANCH_INDIRECT: 0
BRANCH_CONDITIONAL: 0
BRANCH_DIRECT_CALL: 0
BRANCH_INDIRECT_CALL: 0
BRANCH_RETURN: 0


CPU 0 cumulative IPC: 0.1813 instructions: 100000003 cycles: 551685991
CPU 0 Branch Prediction Accuracy: -% MPKI: 0 Average ROB Occupancy at Mispredict: -
Branch type MPKI
BRANCH_DIRECT_JUMP: 0
BRANCH_INDIRECT: 0
BRANCH_CONDITIONAL: 0
BRANCH_DIRECT_CALL: 0
BRANCH_INDIRECT_CALL: 0
BRANCH_RETURN: 0

cpu3->cpu3_STLB TOTAL        ACCESS:        768 HIT:        768 MISS:          0 MSHR_MERGE:          0
cpu3->cpu3_STLB LOAD         ACCESS:        768 HIT:        768 MISS:          0 MSHR_MERGE:          0
cpu3->cpu3_STLB RFO          ACCESS:          0 HIT:          0 MISS:          0 MSHR_MERGE:          0
cpu3->cpu3_STLB PREFETCH     ACCESS:          0 HIT:          0 MISS:          0 MSHR_MERGE:          0
cpu3->cpu3_STLB WRITE        ACCESS:          0 HIT:          0 MISS:          0 MSHR_MERGE:          0
cpu3->cpu3_STLB TRANSLATION  ACCESS:          0 HIT:          0 MISS:          0 MSHR_MERGE:          0
cpu3->cpu3_STLB PREFETCH REQUESTED:          0 ISSUED:          0 USEFUL:          0 USELESS:          0
cpu3->cpu3_STLB AVERAGE MISS LATENCY: - cycles
cpu3_STLB COHERENCE INVALIDATIONS:          0
cpu3_STLB COHERENCE WRITE-HIT OTHER-SHARER EVENTS:          0
cpu3->cpu3_L2C TOTAL        ACCESS:      76051 HIT:      76051 MISS:          0 MSHR_MERGE:          0
cpu3->cpu3_L2C LOAD         ACCESS:      76051 HIT:      76051 MISS:          0 MSHR_MERGE:          0
cpu3->cpu3_L2C RFO          ACCESS:          0 HIT:          0 MISS:          0 MSHR_MERGE:          0
cpu3->cpu3_L2C PREFETCH     ACCESS:          0 HIT:          0 MISS:          0 MSHR_MERGE:          0
cpu3->cpu3_L2C WRITE        ACCESS:          0 HIT:          0 MISS:          0 MSHR_MERGE:          0
cpu3->cpu3_L2C TRANSLATION  ACCESS:          0 HIT:          0 MISS:          0 MSHR_MERGE:          0
cpu3->cpu3_L2C PREFETCH REQUESTED:          0 ISSUED:          0 USEFUL:          0 USELESS:          0
cpu3->cpu3_L2C AVERAGE MISS LATENCY: - cycles
cpu3_L2C COHERENCE INVALIDATIONS:          0
cpu3_L2C COHERENCE WRITE-HIT OTHER-SHARER EVENTS:          0
cpu3->cpu3_L1I TOTAL        ACCESS:  342109325 HIT:  341995994 MISS:     113331 MSHR_MERGE:      37280
cpu3->cpu3_L1I LOAD         ACCESS:  342109325 HIT:  341995994 MISS:     113331 MSHR_MERGE:      37280
cpu3->cpu3_L1I RFO          ACCESS:          0 HIT:          0 MISS:          0 MSHR_MERGE:          0
cpu3->cpu3_L1I PREFETCH     ACCESS:          0 HIT:          0 MISS:          0 MSHR_MERGE:          0
cpu3->cpu3_L1I WRITE        ACCESS:          0 HIT:          0 MISS:          0 MSHR_MERGE:          0
cpu3->cpu3_L1I TRANSLATION  ACCESS:          0 HIT:          0 MISS:          0 MSHR_MERGE:          0
cpu3->cpu3_L1I PREFETCH REQUESTED:          0 ISSUED:          0 USEFUL:          0 USELESS:          0
cpu3->cpu3_L1I AVERAGE MISS LATENCY: 7 cycles
cpu3_L1I COHERENCE INVALIDATIONS:          0
cpu3_L1I COHERENCE WRITE-HIT OTHER-SHARER EVENTS:          0
cpu3_L1D COHERENCE INVALIDATIONS:          0
cpu3_L1D COHERENCE WRITE-HIT OTHER-SHARER EVENTS:          0
cpu3->cpu3_ITLB TOTAL        ACCESS:  273847639 HIT:  273846150 MISS:       1489 MSHR_MERGE:        721
cpu3->cpu3_ITLB LOAD         ACCESS:  273847639 HIT:  273846150 MISS:       1489 MSHR_MERGE:        721
cpu3->cpu3_ITLB RFO          ACCESS:          0 HIT:          0 MISS:          0 MSHR_MERGE:          0
cpu3->cpu3_ITLB PREFETCH     ACCESS:          0 HIT:          0 MISS:          0 MSHR_MERGE:          0
cpu3->cpu3_ITLB WRITE        ACCESS:          0 HIT:          0 MISS:          0 MSHR_MERGE:          0
cpu3->cpu3_ITLB TRANSLATION  ACCESS:          0 HIT:          0 MISS:          0 MSHR_MERGE:          0
cpu3->cpu3_ITLB PREFETCH REQUESTED:          0 ISSUED:          0 USEFUL:          0 USELESS:          0
cpu3->cpu3_ITLB AVERAGE MISS LATENCY: 4 cycles
cpu3_ITLB COHERENCE INVALIDATIONS:          0
cpu3_ITLB COHERENCE WRITE-HIT OTHER-SHARER EVENTS:          0
cpu3_DTLB COHERENCE INVALIDATIONS:          0
cpu3_DTLB COHERENCE WRITE-HIT OTHER-SHARER EVENTS:          0
cpu2->cpu2_STLB TOTAL        ACCESS:        784 HIT:        784 MISS:          0 MSHR_MERGE:          0
cpu2->cpu2_STLB LOAD         ACCESS:        784 HIT:        784 MISS:          0 MSHR_MERGE:          0
cpu2->cpu2_STLB RFO          ACCESS:          0 HIT:          0 MISS:          0 MSHR_MERGE:          0
cpu2->cpu2_STLB PREFETCH     ACCESS:          0 HIT:          0 MISS:          0 MSHR_MERGE:          0
cpu2->cpu2_STLB WRITE        ACCESS:          0 HIT:          0 MISS:          0 MSHR_MERGE:          0
cpu2->cpu2_STLB TRANSLATION  ACCESS:          0 HIT:          0 MISS:          0 MSHR_MERGE:          0
cpu2->cpu2_STLB PREFETCH REQUESTED:          0 ISSUED:          0 USEFUL:          0 USELESS:          0
cpu2->cpu2_STLB AVERAGE MISS LATENCY: - cycles
cpu2_STLB COHERENCE INVALIDATIONS:          0
cpu2_STLB COHERENCE WRITE-HIT OTHER-SHARER EVENTS:          0
cpu2->cpu2_L2C TOTAL        ACCESS:      80781 HIT:      80781 MISS:          0 MSHR_MERGE:          0
cpu2->cpu2_L2C LOAD         ACCESS:      80781 HIT:      80781 MISS:          0 MSHR_MERGE:          0
cpu2->cpu2_L2C RFO          ACCESS:          0 HIT:          0 MISS:          0 MSHR_MERGE:          0
cpu2->cpu2_L2C PREFETCH     ACCESS:          0 HIT:          0 MISS:          0 MSHR_MERGE:          0
cpu2->cpu2_L2C WRITE        ACCESS:          0 HIT:          0 MISS:          0 MSHR_MERGE:          0
cpu2->cpu2_L2C TRANSLATION  ACCESS:          0 HIT:          0 MISS:          0 MSHR_MERGE:          0
cpu2->cpu2_L2C PREFETCH REQUESTED:          0 ISSUED:          0 USEFUL:          0 USELESS:          0
cpu2->cpu2_L2C AVERAGE MISS LATENCY: - cycles
cpu2_L2C COHERENCE INVALIDATIONS:          0
cpu2_L2C COHERENCE WRITE-HIT OTHER-SHARER EVENTS:          0
cpu2->cpu2_L1I TOTAL        ACCESS:  346762811 HIT:  346640614 MISS:     122197 MSHR_MERGE:      41416
cpu2->cpu2_L1I LOAD         ACCESS:  346762811 HIT:  346640614 MISS:     122197 MSHR_MERGE:      41416
cpu2->cpu2_L1I RFO          ACCESS:          0 HIT:          0 MISS:          0 MSHR_MERGE:          0
cpu2->cpu2_L1I PREFETCH     ACCESS:          0 HIT:          0 MISS:          0 MSHR_MERGE:          0
cpu2->cpu2_L1I WRITE        ACCESS:          0 HIT:          0 MISS:          0 MSHR_MERGE:          0
cpu2->cpu2_L1I TRANSLATION  ACCESS:          0 HIT:          0 MISS:          0 MSHR_MERGE:          0
cpu2->cpu2_L1I PREFETCH REQUESTED:          0 ISSUED:          0 USEFUL:          0 USELESS:          0
cpu2->cpu2_L1I AVERAGE MISS LATENCY: 7 cycles
cpu2_L1I COHERENCE INVALIDATIONS:          0
cpu2_L1I COHERENCE WRITE-HIT OTHER-SHARER EVENTS:          0
cpu2_L1D COHERENCE INVALIDATIONS:          0
cpu2_L1D COHERENCE WRITE-HIT OTHER-SHARER EVENTS:          0
cpu2->cpu2_ITLB TOTAL        ACCESS:  273979211 HIT:  273977790 MISS:       1421 MSHR_MERGE:        637
cpu2->cpu2_ITLB LOAD         ACCESS:  273979211 HIT:  273977790 MISS:       1421 MSHR_MERGE:        637
cpu2->cpu2_ITLB RFO          ACCESS:          0 HIT:          0 MISS:          0 MSHR_MERGE:          0
cpu2->cpu2_ITLB PREFETCH     ACCESS:          0 HIT:          0 MISS:          0 MSHR_MERGE:          0
cpu2->cpu2_ITLB WRITE        ACCESS:          0 HIT:          0 MISS:          0 MSHR_MERGE:          0
cpu2->cpu2_ITLB TRANSLATION  ACCESS:          0 HIT:          0 MISS:          0 MSHR_MERGE:          0
cpu2->cpu2_ITLB PREFETCH REQUESTED:          0 ISSUED:          0 USEFUL:          0 USELESS:          0
cpu2->cpu2_ITLB AVERAGE MISS LATENCY: 4 cycles
cpu2_ITLB COHERENCE INVALIDATIONS:          0
cpu2_ITLB COHERENCE WRITE-HIT OTHER-SHARER EVENTS:          0
cpu2_DTLB COHERENCE INVALIDATIONS:          0
cpu2_DTLB COHERENCE WRITE-HIT OTHER-SHARER EVENTS:          0
cpu1->cpu1_STLB TOTAL        ACCESS:    1006016 HIT:     970741 MISS:      35275 MSHR_MERGE:          0
cpu1->cpu1_STLB LOAD         ACCESS:    1006016 HIT:     970741 MISS:      35275 MSHR_MERGE:          0
cpu1->cpu1_STLB RFO          ACCESS:          0 HIT:          0 MISS:          0 MSHR_MERGE:          0
cpu1->cpu1_STLB PREFETCH     ACCESS:          0 HIT:          0 MISS:          0 MSHR_MERGE:          0
cpu1->cpu1_STLB WRITE        ACCESS:          0 HIT:          0 MISS:          0 MSHR_MERGE:          0
cpu1->cpu1_STLB TRANSLATION  ACCESS:          0 HIT:          0 MISS:          0 MSHR_MERGE:          0
cpu1->cpu1_STLB PREFETCH REQUESTED:          0 ISSUED:          0 USEFUL:          0 USELESS:          0
cpu1->cpu1_STLB AVERAGE MISS LATENCY: 491 cycles
cpu1_STLB COHERENCE INVALIDATIONS:          0
cpu1_STLB COHERENCE WRITE-HIT OTHER-SHARER EVENTS:          0
cpu1->cpu1_L2C TOTAL        ACCESS:   14591106 HIT:    5861861 MISS:    8729245 MSHR_MERGE:          0
cpu1->cpu1_L2C LOAD         ACCESS:   14536387 HIT:    5861861 MISS:    8674526 MSHR_MERGE:          0
cpu1->cpu1_L2C RFO          ACCESS:          0 HIT:          0 MISS:          0 MSHR_MERGE:          0
cpu1->cpu1_L2C PREFETCH     ACCESS:          0 HIT:          0 MISS:          0 MSHR_MERGE:          0
cpu1->cpu1_L2C WRITE        ACCESS:          0 HIT:          0 MISS:          0 MSHR_MERGE:          0
cpu1->cpu1_L2C TRANSLATION  ACCESS:      54719 HIT:          0 MISS:      54719 MSHR_MERGE:          0
cpu1->cpu1_L2C PREFETCH REQUESTED:          0 ISSUED:          0 USEFUL:          0 USELESS:          0
cpu1->cpu1_L2C AVERAGE MISS LATENCY: 187.6 cycles
cpu1_L2C COHERENCE INVALIDATIONS:          0
cpu1_L2C COHERENCE WRITE-HIT OTHER-SHARER EVENTS:          0
cpu1->cpu1_L1I TOTAL        ACCESS:   53488729 HIT:   36875378 MISS:   16613351 MSHR_MERGE:    2076964
cpu1->cpu1_L1I LOAD         ACCESS:   53488729 HIT:   36875378 MISS:   16613351 MSHR_MERGE:    2076964
cpu1->cpu1_L1I RFO          ACCESS:          0 HIT:          0 MISS:          0 MSHR_MERGE:          0
cpu1->cpu1_L1I PREFETCH     ACCESS:          0 HIT:          0 MISS:          0 MSHR_MERGE:          0
cpu1->cpu1_L1I WRITE        ACCESS:          0 HIT:          0 MISS:          0 MSHR_MERGE:          0
cpu1->cpu1_L1I TRANSLATION  ACCESS:          0 HIT:          0 MISS:          0 MSHR_MERGE:          0
cpu1->cpu1_L1I PREFETCH REQUESTED:          0 ISSUED:          0 USEFUL:          0 USELESS:          0
cpu1->cpu1_L1I AVERAGE MISS LATENCY: 119.2 cycles
cpu1_L1I COHERENCE INVALIDATIONS:          0
cpu1_L1I COHERENCE WRITE-HIT OTHER-SHARER EVENTS:          0
cpu1->cpu1_L1D TOTAL        ACCESS:      70563 HIT:      15844 MISS:      54719 MSHR_MERGE:          0
cpu1->cpu1_L1D LOAD         ACCESS:          0 HIT:          0 MISS:          0 MSHR_MERGE:          0
cpu1->cpu1_L1D RFO          ACCESS:          0 HIT:          0 MISS:          0 MSHR_MERGE:          0
cpu1->cpu1_L1D PREFETCH     ACCESS:          0 HIT:          0 MISS:          0 MSHR_MERGE:          0
cpu1->cpu1_L1D WRITE        ACCESS:          0 HIT:          0 MISS:          0 MSHR_MERGE:          0
cpu1->cpu1_L1D TRANSLATION  ACCESS:      70563 HIT:      15844 MISS:      54719 MSHR_MERGE:          0
cpu1->cpu1_L1D PREFETCH REQUESTED:          0 ISSUED:          0 USEFUL:          0 USELESS:          0
cpu1->cpu1_L1D AVERAGE MISS LATENCY: 309.1 cycles
cpu1_L1D COHERENCE INVALIDATIONS:          0
cpu1_L1D COHERENCE WRITE-HIT OTHER-SHARER EVENTS:          0
cpu1->cpu1_ITLB TOTAL        ACCESS:   52597175 HIT:   51545851 MISS:    1051324 MSHR_MERGE:      45308
cpu1->cpu1_ITLB LOAD         ACCESS:   52597175 HIT:   51545851 MISS:    1051324 MSHR_MERGE:      45308
cpu1->cpu1_ITLB RFO          ACCESS:          0 HIT:          0 MISS:          0 MSHR_MERGE:          0
cpu1->cpu1_ITLB PREFETCH     ACCESS:          0 HIT:          0 MISS:          0 MSHR_MERGE:          0
cpu1->cpu1_ITLB WRITE        ACCESS:          0 HIT:          0 MISS:          0 MSHR_MERGE:          0
cpu1->cpu1_ITLB TRANSLATION  ACCESS:          0 HIT:          0 MISS:          0 MSHR_MERGE:          0
cpu1->cpu1_ITLB PREFETCH REQUESTED:          0 ISSUED:          0 USEFUL:          0 USELESS:          0
cpu1->cpu1_ITLB AVERAGE MISS LATENCY: 21.25 cycles
cpu1_ITLB COHERENCE INVALIDATIONS:          0
cpu1_ITLB COHERENCE WRITE-HIT OTHER-SHARER EVENTS:          0
cpu1_DTLB COHERENCE INVALIDATIONS:          0
cpu1_DTLB COHERENCE WRITE-HIT OTHER-SHARER EVENTS:          0
cpu0->cpu0_STLB TOTAL        ACCESS:    4677753 HIT:    4530227 MISS:     147526 MSHR_MERGE:          0
cpu0->cpu0_STLB LOAD         ACCESS:    4677753 HIT:    4530227 MISS:     147526 MSHR_MERGE:          0
cpu0->cpu0_STLB RFO          ACCESS:          0 HIT:          0 MISS:          0 MSHR_MERGE:          0
cpu0->cpu0_STLB PREFETCH     ACCESS:          0 HIT:          0 MISS:          0 MSHR_MERGE:          0
cpu0->cpu0_STLB WRITE        ACCESS:          0 HIT:          0 MISS:          0 MSHR_MERGE:          0
cpu0->cpu0_STLB TRANSLATION  ACCESS:          0 HIT:          0 MISS:          0 MSHR_MERGE:          0
cpu0->cpu0_STLB PREFETCH REQUESTED:          0 ISSUED:          0 USEFUL:          0 USELESS:          0
cpu0->cpu0_STLB AVERAGE MISS LATENCY: 615.8 cycles
cpu0_STLB COHERENCE INVALIDATIONS:          0
cpu0_STLB COHERENCE WRITE-HIT OTHER-SHARER EVENTS:          0
cpu0->cpu0_L2C TOTAL        ACCESS:   32530457 HIT:   14858007 MISS:   17672450 MSHR_MERGE:          0
cpu0->cpu0_L2C LOAD         ACCESS:   21172505 HIT:    6729803 MISS:   14442702 MSHR_MERGE:          0
cpu0->cpu0_L2C RFO          ACCESS:    3511514 HIT:     514756 MISS:    2996758 MSHR_MERGE:          0
cpu0->cpu0_L2C PREFETCH     ACCESS:          0 HIT:          0 MISS:          0 MSHR_MERGE:          0
cpu0->cpu0_L2C WRITE        ACCESS:    7574397 HIT:    7573838 MISS:        559 MSHR_MERGE:          0
cpu0->cpu0_L2C TRANSLATION  ACCESS:     272041 HIT:      39610 MISS:     232431 MSHR_MERGE:          0
cpu0->cpu0_L2C PREFETCH REQUESTED:          0 ISSUED:          0 USEFUL:          0 USELESS:          0
cpu0->cpu0_L2C AVERAGE MISS LATENCY: 164.6 cycles
cpu0_L2C COHERENCE INVALIDATIONS:          0
cpu0_L2C COHERENCE WRITE-HIT OTHER-SHARER EVENTS:          0
cpu0->cpu0_L1I TOTAL        ACCESS:   30900016 HIT:   30888130 MISS:      11886 MSHR_MERGE:       5659
cpu0->cpu0_L1I LOAD         ACCESS:   30900016 HIT:   30888130 MISS:      11886 MSHR_MERGE:       5659
cpu0->cpu0_L1I RFO          ACCESS:          0 HIT:          0 MISS:          0 MSHR_MERGE:          0
cpu0->cpu0_L1I PREFETCH     ACCESS:          0 HIT:          0 MISS:          0 MSHR_MERGE:          0
cpu0->cpu0_L1I WRITE        ACCESS:          0 HIT:          0 MISS:          0 MSHR_MERGE:          0
cpu0->cpu0_L1I TRANSLATION  ACCESS:          0 HIT:          0 MISS:          0 MSHR_MERGE:          0
cpu0->cpu0_L1I PREFETCH REQUESTED:          0 ISSUED:          0 USEFUL:          0 USELESS:          0
cpu0->cpu0_L1I AVERAGE MISS LATENCY: 274.1 cycles
cpu0_L1I COHERENCE INVALIDATIONS:          0
cpu0_L1I COHERENCE WRITE-HIT OTHER-SHARER EVENTS:          0
cpu0->cpu0_L1D TOTAL        ACCESS:  102637260 HIT:   74306830 MISS:   28330430 MSHR_MERGE:    3378028
cpu0->cpu0_L1D LOAD         ACCESS:   43861694 HIT:   21916886 MISS:   21944808 MSHR_MERGE:     777968
cpu0->cpu0_L1D RFO          ACCESS:          0 HIT:          0 MISS:          0 MSHR_MERGE:          0
cpu0->cpu0_L1D PREFETCH     ACCESS:          0 HIT:          0 MISS:          0 MSHR_MERGE:          0
cpu0->cpu0_L1D WRITE        ACCESS:   58475351 HIT:   52367536 MISS:    6107815 MSHR_MERGE:    2594294
cpu0->cpu0_L1D TRANSLATION  ACCESS:     300215 HIT:      22408 MISS:     277807 MSHR_MERGE:       5766
cpu0->cpu0_L1D PREFETCH REQUESTED:          0 ISSUED:          0 USEFUL:          0 USELESS:          0
cpu0->cpu0_L1D AVERAGE MISS LATENCY: 124.5 cycles
cpu0_L1D COHERENCE INVALIDATIONS:          0
cpu0_L1D COHERENCE WRITE-HIT OTHER-SHARER EVENTS:          0
cpu0->cpu0_ITLB TOTAL        ACCESS:   28722835 HIT:   28721802 MISS:       1033 MSHR_MERGE:        684
cpu0->cpu0_ITLB LOAD         ACCESS:   28722835 HIT:   28721802 MISS:       1033 MSHR_MERGE:        684
cpu0->cpu0_ITLB RFO          ACCESS:          0 HIT:          0 MISS:          0 MSHR_MERGE:          0
cpu0->cpu0_ITLB PREFETCH     ACCESS:          0 HIT:          0 MISS:          0 MSHR_MERGE:          0
cpu0->cpu0_ITLB WRITE        ACCESS:          0 HIT:          0 MISS:          0 MSHR_MERGE:          0
cpu0->cpu0_ITLB TRANSLATION  ACCESS:          0 HIT:          0 MISS:          0 MSHR_MERGE:          0
cpu0->cpu0_ITLB PREFETCH REQUESTED:          0 ISSUED:          0 USEFUL:          0 USELESS:          0
cpu0->cpu0_ITLB AVERAGE MISS LATENCY: 502.6 cycles
cpu0_ITLB COHERENCE INVALIDATIONS:          0
cpu0_ITLB COHERENCE WRITE-HIT OTHER-SHARER EVENTS:          0
cpu0->cpu0_DTLB TOTAL        ACCESS:   99045236 HIT:   94162466 MISS:    4882770 MSHR_MERGE:     205366
cpu0->cpu0_DTLB LOAD         ACCESS:   99045236 HIT:   94162466 MISS:    4882770 MSHR_MERGE:     205366
cpu0->cpu0_DTLB RFO          ACCESS:          0 HIT:          0 MISS:          0 MSHR_MERGE:          0
cpu0->cpu0_DTLB PREFETCH     ACCESS:          0 HIT:          0 MISS:          0 MSHR_MERGE:          0
cpu0->cpu0_DTLB WRITE        ACCESS:          0 HIT:          0 MISS:          0 MSHR_MERGE:          0
cpu0->cpu0_DTLB TRANSLATION  ACCESS:          0 HIT:          0 MISS:          0 MSHR_MERGE:          0
cpu0->cpu0_DTLB PREFETCH REQUESTED:          0 ISSUED:          0 USEFUL:          0 USELESS:          0
cpu0->cpu0_DTLB AVERAGE MISS LATENCY: 23.42 cycles
cpu0_DTLB COHERENCE INVALIDATIONS:          0
cpu0_DTLB COHERENCE WRITE-HIT OTHER-SHARER EVENTS:          0
cpu0->LLC TOTAL        ACCESS:   24121175 HIT:   12249472 MISS:   11871703 MSHR_MERGE:         88
cpu0->LLC LOAD         ACCESS:   14442676 HIT:    7972007 MISS:    6470669 MSHR_MERGE:         55
cpu0->LLC RFO          ACCESS:    2996756 HIT:     933413 MISS:    2063343 MSHR_MERGE:         33
cpu0->LLC PREFETCH     ACCESS:          0 HIT:          0 MISS:          0 MSHR_MERGE:          0
cpu0->LLC WRITE        ACCESS:    6449312 HIT:    3340550 MISS:    3108762 MSHR_MERGE:          0
cpu0->LLC TRANSLATION  ACCESS:     232431 HIT:       3502 MISS:     228929 MSHR_MERGE:          0
cpu0->LLC PREFETCH REQUESTED:          0 ISSUED:          0 USEFUL:          0 USELESS:          0
cpu0->LLC AVERAGE MISS LATENCY: 350.8 cycles
cpu1->LLC TOTAL        ACCESS:    8729245 HIT:    3537373 MISS:    5191872 MSHR_MERGE:        103
cpu1->LLC LOAD         ACCESS:    8674526 HIT:    3537338 MISS:    5137188 MSHR_MERGE:        103
cpu1->LLC RFO          ACCESS:          0 HIT:          0 MISS:          0 MSHR_MERGE:          0
cpu1->LLC PREFETCH     ACCESS:          0 HIT:          0 MISS:          0 MSHR_MERGE:          0
cpu1->LLC WRITE        ACCESS:          0 HIT:          0 MISS:          0 MSHR_MERGE:          0
cpu1->LLC TRANSLATION  ACCESS:      54719 HIT:         35 MISS:      54684 MSHR_MERGE:          0
cpu1->LLC PREFETCH REQUESTED:          0 ISSUED:          0 USEFUL:          0 USELESS:          0
cpu1->LLC AVERAGE MISS LATENCY: 802.1 cycles
LLC COHERENCE INVALIDATIONS:     672496
LLC COHERENCE WRITE-HIT OTHER-SHARER EVENTS:     672496

DRAM Statistics

Channel 0 RQ ROW_BUFFER_HIT:     269919
  ROW_BUFFER_MISS:   13668466
  AVG DBUS CONGESTED CYCLE: 6.435
Channel 0 WQ ROW_BUFFER_HIT:     315787
  ROW_BUFFER_MISS:    2876043
  FULL:         53
Channel 0 REFRESHES ISSUED:      45974

VMEM ALIASED FILLS (cross-CPU shared-page hits): 91534
