[VMEM] WARNING: physical memory size is smaller than virtual memory size.

*** ChampSim Multicore Out-of-Order Simulator ***
Warmup Instructions: 50000000
Simulation Instructions: 100000000
Number of CPUs: 4
Page size: 4096

Off-chip DRAM Size: 16 GiB Channels: 1 Width: 64-bit Data Rate: 3205 MT/s
Heartbeat CPU 3 instructions: 10000001 cycles: 2511792 heartbeat IPC: 3.981 cumulative IPC: 3.981 (Simulation time: 00 hr 05 min 04 sec)
Heartbeat CPU 2 instructions: 10000003 cycles: 2512822 heartbeat IPC: 3.98 cumulative IPC: 3.98 (Simulation time: 00 hr 05 min 04 sec)
Heartbeat CPU 1 instructions: 10000001 cycles: 4698708 heartbeat IPC: 2.128 cumulative IPC: 2.128 (Simulation time: 00 hr 09 min 27 sec)
Heartbeat CPU 3 instructions: 20000004 cycles: 5012016 heartbeat IPC: 4 cumulative IPC: 3.99 (Simulation time: 00 hr 10 min 06 sec)
Heartbeat CPU 2 instructions: 20000003 cycles: 5013662 heartbeat IPC: 3.999 cumulative IPC: 3.989 (Simulation time: 00 hr 10 min 06 sec)
Heartbeat CPU 3 instructions: 30000004 cycles: 7512016 heartbeat IPC: 4 cumulative IPC: 3.994 (Simulation time: 00 hr 15 min 03 sec)
Heartbeat CPU 2 instructions: 30000003 cycles: 7513662 heartbeat IPC: 4 cumulative IPC: 3.993 (Simulation time: 00 hr 15 min 03 sec)
Heartbeat CPU 1 instructions: 20000001 cycles: 9275352 heartbeat IPC: 2.185 cumulative IPC: 2.156 (Simulation time: 00 hr 18 min 35 sec)
Heartbeat CPU 3 instructions: 40000004 cycles: 10012016 heartbeat IPC: 4 cumulative IPC: 3.995 (Simulation time: 00 hr 20 min 07 sec)
Heartbeat CPU 2 instructions: 40000003 cycles: 10013662 heartbeat IPC: 4 cumulative IPC: 3.995 (Simulation time: 00 hr 20 min 07 sec)
*** Reached end of trace: (2, "traces/ocean_8t/ocean2.champsimtrace")
*** Reached end of trace: (3, "traces/ocean_8t/ocean3.champsimtrace")
Warmup finished CPU 3 instructions: 50000000 cycles: 12514018 cumulative IPC: 3.996 (Simulation time: 00 hr 25 min 15 sec)
Heartbeat CPU 3 instructions: 50000004 cycles: 12514019 heartbeat IPC: 3.997 cumulative IPC: 3.996 (Simulation time: 00 hr 25 min 15 sec)
Warmup finished CPU 2 instructions: 50000002 cycles: 12516467 cumulative IPC: 3.995 (Simulation time: 00 hr 25 min 15 sec)
Heartbeat CPU 2 instructions: 50000006 cycles: 12516468 heartbeat IPC: 3.996 cumulative IPC: 3.995 (Simulation time: 00 hr 25 min 15 sec)
Heartbeat CPU 1 instructions: 30000002 cycles: 14625284 heartbeat IPC: 1.869 cumulative IPC: 2.051 (Simulation time: 00 hr 29 min 31 sec)
Heartbeat CPU 3 instructions: 60000004 cycles: 15014019 heartbeat IPC: 4 cumulative IPC: 3.996 (Simulation time: 00 hr 30 min 15 sec)
Heartbeat CPU 2 instructions: 60000006 cycles: 15016468 heartbeat IPC: 4 cumulative IPC: 3.996 (Simulation time: 00 hr 30 min 16 sec)
Heartbeat CPU 3 instructions: 70000004 cycles: 17514019 heartbeat IPC: 4 cumulative IPC: 3.997 (Simulation time: 00 hr 35 min 19 sec)
Heartbeat CPU 2 instructions: 70000006 cycles: 17516468 heartbeat IPC: 4 cumulative IPC: 3.996 (Simulation time: 00 hr 35 min 20 sec)
Heartbeat CPU 1 instructions: 40000004 cycles: 18870761 heartbeat IPC: 2.355 cumulative IPC: 2.12 (Simulation time: 00 hr 38 min 05 sec)
Heartbeat CPU 3 instructions: 80000004 cycles: 20014019 heartbeat IPC: 4 cumulative IPC: 3.997 (Simulation time: 00 hr 40 min 27 sec)
Heartbeat CPU 2 instructions: 80000006 cycles: 20016468 heartbeat IPC: 4 cumulative IPC: 3.997 (Simulation time: 00 hr 40 min 27 sec)
*** Reached end of trace: (1, "traces/ocean_8t/ocean1.champsimtrace")
Heartbeat CPU 0 instructions: 10000000 cycles: 20880703 heartbeat IPC: 0.4789 cumulative IPC: 0.4789 (Simulation time: 00 hr 42 min 14 sec)
Heartbeat CPU 3 instructions: 90000004 cycles: 22514019 heartbeat IPC: 4 cumulative IPC: 3.998 (Simulation time: 00 hr 45 min 37 sec)
Heartbeat CPU 2 instructions: 90000006 cycles: 22516468 heartbeat IPC: 4 cumulative IPC: 3.997 (Simulation time: 00 hr 45 min 38 sec)
*** Reached end of trace: (2, "traces/ocean_8t/ocean2.champsimtrace")
*** Reached end of trace: (3, "traces/ocean_8t/ocean3.champsimtrace")
Warmup finished CPU 1 instructions: 50000000 cycles: 22749523 cumulative IPC: 2.198 (Simulation time: 00 hr 46 min 06 sec)
Heartbeat CPU 1 instructions: 50000004 cycles: 22749524 heartbeat IPC: 2.578 cumulative IPC: 2.198 (Simulation time: 00 hr 46 min 06 sec)
Heartbeat CPU 3 instructions: 100000004 cycles: 25014019 heartbeat IPC: 4 cumulative IPC: 3.998 (Simulation time: 00 hr 50 min 40 sec)
Heartbeat CPU 2 instructions: 100000006 cycles: 25016468 heartbeat IPC: 4 cumulative IPC: 3.997 (Simulation time: 00 hr 50 min 41 sec)
Heartbeat CPU 1 instructions: 60000005 cycles: 26853270 heartbeat IPC: 2.437 cumulative IPC: 2.234 (Simulation time: 00 hr 54 min 28 sec)
Heartbeat CPU 3 instructions: 110000004 cycles: 27514019 heartbeat IPC: 4 cumulative IPC: 3.998 (Simulation time: 00 hr 55 min 48 sec)
Heartbeat CPU 2 instructions: 110000006 cycles: 27516468 heartbeat IPC: 4 cumulative IPC: 3.998 (Simulation time: 00 hr 55 min 48 sec)
Heartbeat CPU 3 instructions: 120000004 cycles: 30014019 heartbeat IPC: 4 cumulative IPC: 3.998 (Simulation time: 01 hr 00 min 45 sec)
Heartbeat CPU 2 instructions: 120000006 cycles: 30016468 heartbeat IPC: 4 cumulative IPC: 3.998 (Simulation time: 01 hr 00 min 45 sec)
Heartbeat CPU 1 instructions: 70000005 cycles: 31030130 heartbeat IPC: 2.394 cumulative IPC: 2.256 (Simulation time: 01 hr 02 min 42 sec)
Heartbeat CPU 3 instructions: 130000004 cycles: 32514019 heartbeat IPC: 4 cumulative IPC: 3.998 (Simulation time: 01 hr 05 min 29 sec)
Heartbeat CPU 2 instructions: 130000006 cycles: 32516468 heartbeat IPC: 4 cumulative IPC: 3.998 (Simulation time: 01 hr 05 min 29 sec)
*** Reached end of trace: (2, "traces/ocean_8t/ocean2.champsimtrace")
*** Reached end of trace: (3, "traces/ocean_8t/ocean3.champsimtrace")
Heartbeat CPU 3 instructions: 140000004 cycles: 35014019 heartbeat IPC: 4 cumulative IPC: 3.998 (Simulation time: 01 hr 10 min 19 sec)
Heartbeat CPU 2 instructions: 140000006 cycles: 35016468 heartbeat IPC: 4 cumulative IPC: 3.998 (Simulation time: 01 hr 10 min 19 sec)
Heartbeat CPU 1 instructions: 80000005 cycles: 36593165 heartbeat IPC: 1.798 cumulative IPC: 2.186 (Simulation time: 01 hr 13 min 31 sec)
Heartbeat CPU 3 instructions: 150000004 cycles: 37514019 heartbeat IPC: 4 cumulative IPC: 3.999 (Simulation time: 01 hr 15 min 20 sec)
Heartbeat CPU 2 instructions: 150000006 cycles: 37516468 heartbeat IPC: 4 cumulative IPC: 3.998 (Simulation time: 01 hr 15 min 21 sec)
Heartbeat CPU 3 instructions: 160000004 cycles: 40014019 heartbeat IPC: 4 cumulative IPC: 3.999 (Simulation time: 01 hr 20 min 19 sec)
Heartbeat CPU 2 instructions: 160000006 cycles: 40016468 heartbeat IPC: 4 cumulative IPC: 3.998 (Simulation time: 01 hr 20 min 20 sec)
Heartbeat CPU 1 instructions: 90000007 cycles: 40027015 heartbeat IPC: 2.912 cumulative IPC: 2.248 (Simulation time: 01 hr 20 min 21 sec)
*** Reached end of trace: (1, "traces/ocean_8t/ocean1.champsimtrace")
Heartbeat CPU 0 instructions: 20000004 cycles: 42192976 heartbeat IPC: 0.4692 cumulative IPC: 0.474 (Simulation time: 01 hr 24 min 50 sec)
Heartbeat CPU 3 instructions: 170000004 cycles: 42514019 heartbeat IPC: 4 cumulative IPC: 3.999 (Simulation time: 01 hr 25 min 32 sec)
Heartbeat CPU 2 instructions: 170000006 cycles: 42516468 heartbeat IPC: 4 cumulative IPC: 3.998 (Simulation time: 01 hr 25 min 32 sec)
Heartbeat CPU 1 instructions: 100000009 cycles: 44122385 heartbeat IPC: 2.442 cumulative IPC: 2.266 (Simulation time: 01 hr 28 min 50 sec)
Heartbeat CPU 3 instructions: 180000004 cycles: 45014019 heartbeat IPC: 4 cumulative IPC: 3.999 (Simulation time: 01 hr 30 min 39 sec)
Heartbeat CPU 2 instructions: 180000006 cycles: 45016468 heartbeat IPC: 4 cumulative IPC: 3.999 (Simulation time: 01 hr 30 min 40 sec)
*** Reached end of trace: (2, "traces/ocean_8t/ocean2.champsimtrace")
*** Reached end of trace: (3, "traces/ocean_8t/ocean3.champsimtrace")
Heartbeat CPU 3 instructions: 190000004 cycles: 47514019 heartbeat IPC: 4 cumulative IPC: 3.999 (Simulation time: 01 hr 35 min 32 sec)
Heartbeat CPU 2 instructions: 190000006 cycles: 47516468 heartbeat IPC: 4 cumulative IPC: 3.999 (Simulation time: 01 hr 35 min 32 sec)
Heartbeat CPU 1 instructions: 110000010 cycles: 48231004 heartbeat IPC: 2.434 cumulative IPC: 2.281 (Simulation time: 01 hr 36 min 57 sec)
Heartbeat CPU 3 instructions: 200000004 cycles: 50014019 heartbeat IPC: 4 cumulative IPC: 3.999 (Simulation time: 01 hr 40 min 36 sec)
Heartbeat CPU 2 instructions: 200000006 cycles: 50016468 heartbeat IPC: 4 cumulative IPC: 3.999 (Simulation time: 01 hr 40 min 37 sec)
Heartbeat CPU 3 instructions: 210000004 cycles: 52514019 heartbeat IPC: 4 cumulative IPC: 3.999 (Simulation time: 01 hr 45 min 43 sec)
Heartbeat CPU 2 instructions: 210000006 cycles: 52516468 heartbeat IPC: 4 cumulative IPC: 3.999 (Simulation time: 01 hr 45 min 43 sec)
Heartbeat CPU 1 instructions: 120000011 cycles: 53165832 heartbeat IPC: 2.026 cumulative IPC: 2.257 (Simulation time: 01 hr 46 min 57 sec)
Heartbeat CPU 3 instructions: 220000004 cycles: 55014019 heartbeat IPC: 4 cumulative IPC: 3.999 (Simulation time: 01 hr 50 min 15 sec)
Heartbeat CPU 2 instructions: 220000006 cycles: 55016468 heartbeat IPC: 4 cumulative IPC: 3.999 (Simulation time: 01 hr 50 min 15 sec)
*** Reached end of trace: (2, "traces/ocean_8t/ocean2.champsimtrace")
*** Reached end of trace: (3, "traces/ocean_8t/ocean3.champsimtrace")
Heartbeat CPU 3 instructions: 230000004 cycles: 57514019 heartbeat IPC: 4 cumulative IPC: 3.999 (Simulation time: 01 hr 55 min 02 sec)
Heartbeat CPU 2 instructions: 230000006 cycles: 57516468 heartbeat IPC: 4 cumulative IPC: 3.999 (Simulation time: 01 hr 55 min 02 sec)
Heartbeat CPU 1 instructions: 130000011 cycles: 57656817 heartbeat IPC: 2.227 cumulative IPC: 2.255 (Simulation time: 01 hr 55 min 18 sec)
*** Reached end of trace: (1, "traces/ocean_8t/ocean1.champsimtrace")
Heartbeat CPU 3 instructions: 240000004 cycles: 60014019 heartbeat IPC: 4 cumulative IPC: 3.999 (Simulation time: 01 hr 59 min 25 sec)
Heartbeat CPU 2 instructions: 240000006 cycles: 60016468 heartbeat IPC: 4 cumulative IPC: 3.999 (Simulation time: 01 hr 59 min 25 sec)
Heartbeat CPU 1 instructions: 140000011 cycles: 61393506 heartbeat IPC: 2.676 cumulative IPC: 2.28 (Simulation time: 02 hr 01 min 49 sec)
Heartbeat CPU 0 instructions: 30000005 cycles: 62314063 heartbeat IPC: 0.497 cumulative IPC: 0.4814 (Simulation time: 02 hr 03 min 21 sec)
Heartbeat CPU 3 instructions: 250000004 cycles: 62514019 heartbeat IPC: 4 cumulative IPC: 3.999 (Simulation time: 02 hr 03 min 42 sec)
Heartbeat CPU 2 instructions: 250000006 cycles: 62516468 heartbeat IPC: 4 cumulative IPC: 3.999 (Simulation time: 02 hr 03 min 42 sec)
Heartbeat CPU 3 instructions: 260000004 cycles: 65014019 heartbeat IPC: 4 cumulative IPC: 3.999 (Simulation time: 02 hr 07 min 58 sec)
Heartbeat CPU 2 instructions: 260000006 cycles: 65016468 heartbeat IPC: 4 cumulative IPC: 3.999 (Simulation time: 02 hr 07 min 59 sec)
Heartbeat CPU 1 instructions: 150000011 cycles: 65597914 heartbeat IPC: 2.378 cumulative IPC: 2.287 (Simulation time: 02 hr 08 min 59 sec)
Heartbeat CPU 3 instructions: 270000004 cycles: 67514019 heartbeat IPC: 4 cumulative IPC: 3.999 (Simulation time: 02 hr 12 min 21 sec)
Heartbeat CPU 2 instructions: 270000006 cycles: 67516468 heartbeat IPC: 4 cumulative IPC: 3.999 (Simulation time: 02 hr 12 min 22 sec)
*** Reached end of trace: (2, "traces/ocean_8t/ocean2.champsimtrace")
*** Reached end of trace: (3, "traces/ocean_8t/ocean3.champsimtrace")
Heartbeat CPU 1 instructions: 160000014 cycles: 69728697 heartbeat IPC: 2.421 cumulative IPC: 2.295 (Simulation time: 02 hr 16 min 36 sec)
Heartbeat CPU 3 instructions: 280000004 cycles: 70014019 heartbeat IPC: 4 cumulative IPC: 3.999 (Simulation time: 02 hr 17 min 08 sec)
Heartbeat CPU 2 instructions: 280000006 cycles: 70016468 heartbeat IPC: 4 cumulative IPC: 3.999 (Simulation time: 02 hr 17 min 08 sec)
Heartbeat CPU 3 instructions: 290000004 cycles: 72514019 heartbeat IPC: 4 cumulative IPC: 3.999 (Simulation time: 02 hr 21 min 49 sec)
Heartbeat CPU 2 instructions: 290000006 cycles: 72516468 heartbeat IPC: 4 cumulative IPC: 3.999 (Simulation time: 02 hr 21 min 49 sec)
Heartbeat CPU 3 instructions: 300000004 cycles: 75014019 heartbeat IPC: 4 cumulative IPC: 3.999 (Simulation time: 02 hr 26 min 27 sec)
Heartbeat CPU 2 instructions: 300000006 cycles: 75016468 heartbeat IPC: 4 cumulative IPC: 3.999 (Simulation time: 02 hr 26 min 27 sec)
Heartbeat CPU 1 instructions: 170000014 cycles: 75308186 heartbeat IPC: 1.792 cumulative IPC: 2.257 (Simulation time: 02 hr 27 min 01 sec)
Heartbeat CPU 3 instructions: 310000004 cycles: 77514019 heartbeat IPC: 4 cumulative IPC: 3.999 (Simulation time: 02 hr 31 min 17 sec)
Heartbeat CPU 2 instructions: 310000006 cycles: 77516468 heartbeat IPC: 4 cumulative IPC: 3.999 (Simulation time: 02 hr 31 min 17 sec)
Heartbeat CPU 1 instructions: 180000017 cycles: 78859395 heartbeat IPC: 2.816 cumulative IPC: 2.283 (Simulation time: 02 hr 33 min 51 sec)
*** Reached end of trace: (2, "traces/ocean_8t/ocean2.champsimtrace")
*** Reached end of trace: (3, "traces/ocean_8t/ocean3.champsimtrace")
*** Reached end of trace: (1, "traces/ocean_8t/ocean1.champsimtrace")
Heartbeat CPU 3 instructions: 320000004 cycles: 80014019 heartbeat IPC: 4 cumulative IPC: 3.999 (Simulation time: 02 hr 36 min 04 sec)
Heartbeat CPU 2 instructions: 320000006 cycles: 80016468 heartbeat IPC: 4 cumulative IPC: 3.999 (Simulation time: 02 hr 36 min 04 sec)
Heartbeat CPU 3 instructions: 330000004 cycles: 82514019 heartbeat IPC: 4 cumulative IPC: 3.999 (Simulation time: 02 hr 40 min 50 sec)
Heartbeat CPU 2 instructions: 330000006 cycles: 82516468 heartbeat IPC: 4 cumulative IPC: 3.999 (Simulation time: 02 hr 40 min 51 sec)
Heartbeat CPU 1 instructions: 190000020 cycles: 82871103 heartbeat IPC: 2.493 cumulative IPC: 2.293 (Simulation time: 02 hr 41 min 31 sec)
Heartbeat CPU 0 instructions: 40000006 cycles: 84773218 heartbeat IPC: 0.4453 cumulative IPC: 0.4718 (Simulation time: 02 hr 45 min 07 sec)
Heartbeat CPU 3 instructions: 340000004 cycles: 85014019 heartbeat IPC: 4 cumulative IPC: 3.999 (Simulation time: 02 hr 45 min 35 sec)
Heartbeat CPU 2 instructions: 340000006 cycles: 85016468 heartbeat IPC: 4 cumulative IPC: 3.999 (Simulation time: 02 hr 45 min 36 sec)
Heartbeat CPU 1 instructions: 200000020 cycles: 86967079 heartbeat IPC: 2.441 cumulative IPC: 2.3 (Simulation time: 02 hr 49 min 14 sec)
Heartbeat CPU 3 instructions: 350000004 cycles: 87514019 heartbeat IPC: 4 cumulative IPC: 3.999 (Simulation time: 02 hr 50 min 16 sec)
Heartbeat CPU 2 instructions: 350000006 cycles: 87516468 heartbeat IPC: 4 cumulative IPC: 3.999 (Simulation time: 02 hr 50 min 16 sec)
Heartbeat CPU 3 instructions: 360000004 cycles: 90014019 heartbeat IPC: 4 cumulative IPC: 3.999 (Simulation time: 02 hr 55 min 07 sec)
Heartbeat CPU 2 instructions: 360000006 cycles: 90016468 heartbeat IPC: 4 cumulative IPC: 3.999 (Simulation time: 02 hr 55 min 07 sec)
*** Reached end of trace: (2, "traces/ocean_8t/ocean2.champsimtrace")
*** Reached end of trace: (3, "traces/ocean_8t/ocean3.champsimtrace")
Heartbeat CPU 1 instructions: 210000020 cycles: 91721959 heartbeat IPC: 2.103 cumulative IPC: 2.29 (Simulation time: 02 hr 58 min 26 sec)
Heartbeat CPU 3 instructions: 370000004 cycles: 92514019 heartbeat IPC: 4 cumulative IPC: 3.999 (Simulation time: 02 hr 59 min 57 sec)
Heartbeat CPU 2 instructions: 370000006 cycles: 92516468 heartbeat IPC: 4 cumulative IPC: 3.999 (Simulation time: 02 hr 59 min 57 sec)
Heartbeat CPU 3 instructions: 380000004 cycles: 95014019 heartbeat IPC: 4 cumulative IPC: 3.999 (Simulation time: 03 hr 04 min 44 sec)
Heartbeat CPU 2 instructions: 380000006 cycles: 95016468 heartbeat IPC: 4 cumulative IPC: 3.999 (Simulation time: 03 hr 04 min 45 sec)
Heartbeat CPU 1 instructions: 220000022 cycles: 96443360 heartbeat IPC: 2.118 cumulative IPC: 2.281 (Simulation time: 03 hr 07 min 31 sec)
Heartbeat CPU 3 instructions: 390000004 cycles: 97514019 heartbeat IPC: 4 cumulative IPC: 3.999 (Simulation time: 03 hr 09 min 36 sec)
Heartbeat CPU 2 instructions: 390000006 cycles: 97516468 heartbeat IPC: 4 cumulative IPC: 3.999 (Simulation time: 03 hr 09 min 37 sec)
*** Reached end of trace: (0, "traces/ocean_8t/ocean0.champsimtrace")
*** Reached end of trace: (1, "traces/ocean_8t/ocean1.champsimtrace")
Heartbeat CPU 3 instructions: 400000004 cycles: 100014019 heartbeat IPC: 4 cumulative IPC: 3.999 (Simulation time: 03 hr 14 min 34 sec)
Heartbeat CPU 2 instructions: 400000006 cycles: 100016468 heartbeat IPC: 4 cumulative IPC: 3.999 (Simulation time: 03 hr 14 min 34 sec)
Heartbeat CPU 1 instructions: 230000024 cycles: 100161324 heartbeat IPC: 2.69 cumulative IPC: 2.296 (Simulation time: 03 hr 14 min 51 sec)
*** Reached end of trace: (2, "traces/ocean_8t/ocean2.champsimtrace")
*** Reached end of trace: (3, "traces/ocean_8t/ocean3.champsimtrace")
Heartbeat CPU 3 instructions: 410000004 cycles: 102514019 heartbeat IPC: 4 cumulative IPC: 3.999 (Simulation time: 03 hr 19 min 23 sec)
Heartbeat CPU 2 instructions: 410000006 cycles: 102516468 heartbeat IPC: 4 cumulative IPC: 3.999 (Simulation time: 03 hr 19 min 23 sec)
Heartbeat CPU 1 instructions: 240000025 cycles: 104338730 heartbeat IPC: 2.394 cumulative IPC: 2.3 (Simulation time: 03 hr 22 min 52 sec)
Heartbeat CPU 3 instructions: 420000004 cycles: 105014019 heartbeat IPC: 4 cumulative IPC: 3.999 (Simulation time: 03 hr 24 min 12 sec)
Heartbeat CPU 2 instructions: 420000006 cycles: 105016468 heartbeat IPC: 4 cumulative IPC: 3.999 (Simulation time: 03 hr 24 min 12 sec)
Warmup finished CPU 0 instructions: 50000000 cycles: 106611468 cumulative IPC: 0.469 (Simulation time: 03 hr 27 min 16 sec)
Warmup complete CPU 3 instructions: 426389800 cycles: 106611468 cumulative IPC: 3.999 (Simulation time: 03 hr 27 min 16 sec)
Warmup complete CPU 2 instructions: 426380006 cycles: 106611468 cumulative IPC: 3.999 (Simulation time: 03 hr 27 min 16 sec)
Warmup complete CPU 1 instructions: 245717599 cycles: 106611468 cumulative IPC: 2.305 (Simulation time: 03 hr 27 min 16 sec)
Warmup complete CPU 0 instructions: 50000000 cycles: 106611468 cumulative IPC: 0.469 (Simulation time: 03 hr 27 min 16 sec)
Heartbeat CPU 0 instructions: 50000008 cycles: 106611660 heartbeat IPC: 0.4579 cumulative IPC: 0.04167 (Simulation time: 03 hr 27 min 16 sec)
Heartbeat CPU 3 instructions: 430000004 cycles: 107514019 heartbeat IPC: 4 cumulative IPC: 4 (Simulation time: 03 hr 28 min 57 sec)
Heartbeat CPU 2 instructions: 430000006 cycles: 107516468 heartbeat IPC: 4 cumulative IPC: 4 (Simulation time: 03 hr 28 min 57 sec)
Heartbeat CPU 3 instructions: 440000004 cycles: 110014019 heartbeat IPC: 4 cumulative IPC: 4 (Simulation time: 03 hr 33 min 22 sec)
Heartbeat CPU 2 instructions: 440000006 cycles: 110016468 heartbeat IPC: 4 cumulative IPC: 4 (Simulation time: 03 hr 33 min 23 sec)
Heartbeat CPU 3 instructions: 450000004 cycles: 112514019 heartbeat IPC: 4 cumulative IPC: 4 (Simulation time: 03 hr 37 min 42 sec)
Heartbeat CPU 2 instructions: 450000006 cycles: 112516468 heartbeat IPC: 4 cumulative IPC: 4 (Simulation time: 03 hr 37 min 42 sec)
*** Reached end of trace: (2, "traces/ocean_8t/ocean2.champsimtrace")
*** Reached end of trace: (3, "traces/ocean_8t/ocean3.champsimtrace")
Heartbeat CPU 3 instructions: 460000007 cycles: 115014036 heartbeat IPC: 4 cumulative IPC: 4 (Simulation time: 03 hr 41 min 56 sec)
Heartbeat CPU 2 instructions: 460000007 cycles: 115016491 heartbeat IPC: 4 cumulative IPC: 4 (Simulation time: 03 hr 41 min 56 sec)
Heartbeat CPU 3 instructions: 470000007 cycles: 117514036 heartbeat IPC: 4 cumulative IPC: 4 (Simulation time: 03 hr 46 min 13 sec)
Heartbeat CPU 2 instructions: 470000007 cycles: 117516491 heartbeat IPC: 4 cumulative IPC: 4 (Simulation time: 03 hr 46 min 13 sec)
Heartbeat CPU 3 instructions: 480000007 cycles: 120014036 heartbeat IPC: 4 cumulative IPC: 4 (Simulation time: 03 hr 50 min 34 sec)
Heartbeat CPU 2 instructions: 480000007 cycles: 120016491 heartbeat IPC: 4 cumulative IPC: 4 (Simulation time: 03 hr 50 min 34 sec)
Heartbeat CPU 1 instructions: 250000025 cycles: 120045112 heartbeat IPC: 0.6367 cumulative IPC: 0.3188 (Simulation time: 03 hr 50 min 37 sec)
Heartbeat CPU 3 instructions: 490000007 cycles: 122514036 heartbeat IPC: 4 cumulative IPC: 4 (Simulation time: 03 hr 54 min 47 sec)
Heartbeat CPU 2 instructions: 490000007 cycles: 122516491 heartbeat IPC: 4 cumulative IPC: 4 (Simulation time: 03 hr 54 min 48 sec)
*** Reached end of trace: (2, "traces/ocean_8t/ocean2.champsimtrace")
*** Reached end of trace: (3, "traces/ocean_8t/ocean3.champsimtrace")
Heartbeat CPU 3 instructions: 500000010 cycles: 125014053 heartbeat IPC: 4 cumulative IPC: 4 (Simulation time: 03 hr 58 min 54 sec)
Heartbeat CPU 2 instructions: 500000008 cycles: 125016514 heartbeat IPC: 4 cumulative IPC: 4 (Simulation time: 03 hr 58 min 54 sec)
Heartbeat CPU 3 instructions: 510000010 cycles: 127514053 heartbeat IPC: 4 cumulative IPC: 4 (Simulation time: 04 hr 03 min 02 sec)
Heartbeat CPU 2 instructions: 510000008 cycles: 127516514 heartbeat IPC: 4 cumulative IPC: 4 (Simulation time: 04 hr 03 min 02 sec)
Heartbeat CPU 3 instructions: 520000010 cycles: 130014053 heartbeat IPC: 4 cumulative IPC: 4 (Simulation time: 04 hr 07 min 06 sec)
Heartbeat CPU 2 instructions: 520000008 cycles: 130016514 heartbeat IPC: 4 cumulative IPC: 4 (Simulation time: 04 hr 07 min 06 sec)
Simulation finished CPU 3 instructions: 100000002 cycles: 25000033 cumulative IPC: 4 (Simulation time: 04 hr 09 min 36 sec)
Simulation finished CPU 2 instructions: 100000002 cycles: 25000046 cumulative IPC: 4 (Simulation time: 04 hr 09 min 36 sec)
Heartbeat CPU 3 instructions: 530000010 cycles: 132514053 heartbeat IPC: 4 cumulative IPC: 4 (Simulation time: 04 hr 11 min 04 sec)
Heartbeat CPU 2 instructions: 530000008 cycles: 132516514 heartbeat IPC: 4 cumulative IPC: 4 (Simulation time: 04 hr 11 min 04 sec)
Heartbeat CPU 3 instructions: 540000010 cycles: 135014053 heartbeat IPC: 4 cumulative IPC: 4 (Simulation time: 04 hr 15 min 00 sec)
Heartbeat CPU 2 instructions: 540000008 cycles: 135016514 heartbeat IPC: 4 cumulative IPC: 4 (Simulation time: 04 hr 15 min 00 sec)
*** Reached end of trace: (2, "traces/ocean_8t/ocean2.champsimtrace")
*** Reached end of trace: (3, "traces/ocean_8t/ocean3.champsimtrace")
Heartbeat CPU 3 instructions: 550000013 cycles: 137514070 heartbeat IPC: 4 cumulative IPC: 4 (Simulation time: 04 hr 19 min 03 sec)
Heartbeat CPU 2 instructions: 550000009 cycles: 137516537 heartbeat IPC: 4 cumulative IPC: 4 (Simulation time: 04 hr 19 min 03 sec)
Heartbeat CPU 3 instructions: 560000013 cycles: 140014070 heartbeat IPC: 4 cumulative IPC: 4 (Simulation time: 04 hr 23 min 08 sec)
Heartbeat CPU 2 instructions: 560000009 cycles: 140016537 heartbeat IPC: 4 cumulative IPC: 4 (Simulation time: 04 hr 23 min 08 sec)
Heartbeat CPU 3 instructions: 570000013 cycles: 142514070 heartbeat IPC: 4 cumulative IPC: 4 (Simulation time: 04 hr 27 min 07 sec)
Heartbeat CPU 2 instructions: 570000009 cycles: 142516537 heartbeat IPC: 4 cumulative IPC: 4 (Simulation time: 04 hr 27 min 07 sec)
Heartbeat CPU 3 instructions: 580000013 cycles: 145014070 heartbeat IPC: 4 cumulative IPC: 4 (Simulation time: 04 hr 31 min 08 sec)
Heartbeat CPU 2 instructions: 580000009 cycles: 145016537 heartbeat IPC: 4 cumulative IPC: 4 (Simulation time: 04 hr 31 min 08 sec)
*** Reached end of trace: (2, "traces/ocean_8t/ocean2.champsimtrace")
Heartbeat CPU 3 instructions: 590000013 cycles: 147514070 heartbeat IPC: 4 cumulative IPC: 4 (Simulation time: 04 hr 35 min 19 sec)
Heartbeat CPU 2 instructions: 590000010 cycles: 147516560 heartbeat IPC: 4 cumulative IPC: 4 (Simulation time: 04 hr 35 min 19 sec)
*** Reached end of trace: (3, "traces/ocean_8t/ocean3.champsimtrace")
Heartbeat CPU 3 instructions: 600000016 cycles: 150014087 heartbeat IPC: 4 cumulative IPC: 4 (Simulation time: 04 hr 39 min 23 sec)
Heartbeat CPU 2 instructions: 600000010 cycles: 150016560 heartbeat IPC: 4 cumulative IPC: 4 (Simulation time: 04 hr 39 min 23 sec)
Heartbeat CPU 3 instructions: 610000016 cycles: 152514087 heartbeat IPC: 4 cumulative IPC: 4 (Simulation time: 04 hr 43 min 24 sec)
Heartbeat CPU 2 instructions: 610000010 cycles: 152516560 heartbeat IPC: 4 cumulative IPC: 4 (Simulation time: 04 hr 43 min 25 sec)
Heartbeat CPU 0 instructions: 60000011 cycles: 154212745 heartbeat IPC: 0.2101 cumulative IPC: 0.2101 (Simulation time: 04 hr 46 min 07 sec)
Heartbeat CPU 3 instructions: 620000016 cycles: 155014087 heartbeat IPC: 4 cumulative IPC: 4 (Simulation time: 04 hr 47 min 25 sec)
Heartbeat CPU 2 instructions: 620000010 cycles: 155016560 heartbeat IPC: 4 cumulative IPC: 4 (Simulation time: 04 hr 47 min 25 sec)
Heartbeat CPU 3 instructions: 630000016 cycles: 157514087 heartbeat IPC: 4 cumulative IPC: 4 (Simulation time: 04 hr 51 min 28 sec)
Heartbeat CPU 2 instructions: 630000010 cycles: 157516560 heartbeat IPC: 4 cumulative IPC: 4 (Simulation time: 04 hr 51 min 28 sec)
*** Reached end of trace: (2, "traces/ocean_8t/ocean2.champsimtrace")
*** Reached end of trace: (3, "traces/ocean_8t/ocean3.champsimtrace")
Heartbeat CPU 3 instructions: 640000019 cycles: 160014104 heartbeat IPC: 4 cumulative IPC: 4 (Simulation time: 04 hr 55 min 24 sec)
Heartbeat CPU 2 instructions: 640000011 cycles: 160016583 heartbeat IPC: 4 cumulative IPC: 4 (Simulation time: 04 hr 55 min 24 sec)
Heartbeat CPU 1 instructions: 260000026 cycles: 162137361 heartbeat IPC: 0.2376 cumulative IPC: 0.2572 (Simulation time: 04 hr 58 min 43 sec)
Heartbeat CPU 3 instructions: 650000019 cycles: 162514104 heartbeat IPC: 4 cumulative IPC: 4 (Simulation time: 04 hr 59 min 20 sec)
Heartbeat CPU 2 instructions: 650000011 cycles: 162516583 heartbeat IPC: 4 cumulative IPC: 4 (Simulation time: 04 hr 59 min 20 sec)
Heartbeat CPU 3 instructions: 660000019 cycles: 165014104 heartbeat IPC: 4 cumulative IPC: 4 (Simulation time: 05 hr 03 min 17 sec)
Heartbeat CPU 2 instructions: 660000011 cycles: 165016583 heartbeat IPC: 4 cumulative IPC: 4 (Simulation time: 05 hr 03 min 17 sec)
Heartbeat CPU 3 instructions: 670000019 cycles: 167514104 heartbeat IPC: 4 cumulative IPC: 4 (Simulation time: 05 hr 07 min 08 sec)
Heartbeat CPU 2 instructions: 670000011 cycles: 167516583 heartbeat IPC: 4 cumulative IPC: 4 (Simulation time: 05 hr 07 min 08 sec)
*** Reached end of trace: (2, "traces/ocean_8t/ocean2.champsimtrace")
Heartbeat CPU 3 instructions: 680000019 cycles: 170014104 heartbeat IPC: 4 cumulative IPC: 4 (Simulation time: 05 hr 10 min 59 sec)
Heartbeat CPU 2 instructions: 680000012 cycles: 170016606 heartbeat IPC: 4 cumulative IPC: 4 (Simulation time: 05 hr 10 min 59 sec)
*** Reached end of trace: (3, "traces/ocean_8t/ocean3.champsimtrace")
Heartbeat CPU 3 instructions: 690000022 cycles: 172514121 heartbeat IPC: 4 cumulative IPC: 4 (Simulation time: 05 hr 14 min 49 sec)
Heartbeat CPU 2 instructions: 690000012 cycles: 172516606 heartbeat IPC: 4 cumulative IPC: 4 (Simulation time: 05 hr 14 min 50 sec)
Heartbeat CPU 3 instructions: 700000022 cycles: 175014121 heartbeat IPC: 4 cumulative IPC: 4 (Simulation time: 05 hr 18 min 43 sec)
Heartbeat CPU 2 instructions: 700000012 cycles: 175016606 heartbeat IPC: 4 cumulative IPC: 4 (Simulation time: 05 hr 18 min 43 sec)
Heartbeat CPU 3 instructions: 710000022 cycles: 177514121 heartbeat IPC: 4 cumulative IPC: 4 (Simulation time: 05 hr 22 min 29 sec)
Heartbeat CPU 2 instructions: 710000012 cycles: 177516606 heartbeat IPC: 4 cumulative IPC: 4 (Simulation time: 05 hr 22 min 30 sec)
Heartbeat CPU 3 instructions: 720000022 cycles: 180014121 heartbeat IPC: 4 cumulative IPC: 4 (Simulation time: 05 hr 26 min 26 sec)
Heartbeat CPU 2 instructions: 720000012 cycles: 180016606 heartbeat IPC: 4 cumulative IPC: 4 (Simulation time: 05 hr 26 min 27 sec)
*** Reached end of trace: (2, "traces/ocean_8t/ocean2.champsimtrace")
*** Reached end of trace: (3, "traces/ocean_8t/ocean3.champsimtrace")
Heartbeat CPU 3 instructions: 730000025 cycles: 182514138 heartbeat IPC: 4 cumulative IPC: 4 (Simulation time: 05 hr 30 min 47 sec)
Heartbeat CPU 2 instructions: 730000013 cycles: 182516629 heartbeat IPC: 4 cumulative IPC: 4 (Simulation time: 05 hr 30 min 48 sec)
Heartbeat CPU 3 instructions: 740000025 cycles: 185014138 heartbeat IPC: 4 cumulative IPC: 4 (Simulation time: 05 hr 35 min 00 sec)
Heartbeat CPU 2 instructions: 740000013 cycles: 185016629 heartbeat IPC: 4 cumulative IPC: 4 (Simulation time: 05 hr 35 min 00 sec)
Heartbeat CPU 3 instructions: 750000025 cycles: 187514138 heartbeat IPC: 4 cumulative IPC: 4 (Simulation time: 05 hr 38 min 46 sec)
Heartbeat CPU 2 instructions: 750000013 cycles: 187516629 heartbeat IPC: 4 cumulative IPC: 4 (Simulation time: 05 hr 38 min 46 sec)
Heartbeat CPU 3 instructions: 760000025 cycles: 190014138 heartbeat IPC: 4 cumulative IPC: 4 (Simulation time: 05 hr 42 min 35 sec)
Heartbeat CPU 2 instructions: 760000013 cycles: 190016629 heartbeat IPC: 4 cumulative IPC: 4 (Simulation time: 05 hr 42 min 35 sec)
*** Reached end of trace: (2, "traces/ocean_8t/ocean2.champsimtrace")
Heartbeat CPU 3 instructions: 770000025 cycles: 192514138 heartbeat IPC: 4 cumulative IPC: 4 (Simulation time: 05 hr 46 min 41 sec)
Heartbeat CPU 2 instructions: 770000014 cycles: 192516652 heartbeat IPC: 4 cumulative IPC: 4 (Simulation time: 05 hr 46 min 42 sec)
*** Reached end of trace: (3, "traces/ocean_8t/ocean3.champsimtrace")
Heartbeat CPU 3 instructions: 780000028 cycles: 195014155 heartbeat IPC: 4 cumulative IPC: 4 (Simulation time: 05 hr 50 min 34 sec)
Heartbeat CPU 2 instructions: 780000014 cycles: 195016652 heartbeat IPC: 4 cumulative IPC: 4 (Simulation time: 05 hr 50 min 34 sec)
Heartbeat CPU 3 instructions: 790000028 cycles: 197514155 heartbeat IPC: 4 cumulative IPC: 4 (Simulation time: 05 hr 54 min 33 sec)
Heartbeat CPU 2 instructions: 790000014 cycles: 197516652 heartbeat IPC: 4 cumulative IPC: 4 (Simulation time: 05 hr 54 min 34 sec)
Heartbeat CPU 3 instructions: 800000028 cycles: 200014155 heartbeat IPC: 4 cumulative IPC: 4 (Simulation time: 05 hr 58 min 27 sec)
Heartbeat CPU 2 instructions: 800000014 cycles: 200016652 heartbeat IPC: 4 cumulative IPC: 4 (Simulation time: 05 hr 58 min 28 sec)
Heartbeat CPU 1 instructions: 270000026 cycles: 200620071 heartbeat IPC: 0.2599 cumulative IPC: 0.2583 (Simulation time: 05 hr 59 min 27 sec)
Heartbeat CPU 3 instructions: 810000028 cycles: 202514155 heartbeat IPC: 4 cumulative IPC: 4 (Simulation time: 06 hr 02 min 36 sec)
Heartbeat CPU 2 instructions: 810000014 cycles: 202516652 heartbeat IPC: 4 cumulative IPC: 4 (Simulation time: 06 hr 02 min 36 sec)
*** Reached end of trace: (2, "traces/ocean_8t/ocean2.champsimtrace")
*** Reached end of trace: (3, "traces/ocean_8t/ocean3.champsimtrace")
Heartbeat CPU 3 instructions: 820000031 cycles: 205014172 heartbeat IPC: 4 cumulative IPC: 4 (Simulation time: 06 hr 06 min 44 sec)
Heartbeat CPU 2 instructions: 820000015 cycles: 205016675 heartbeat IPC: 4 cumulative IPC: 4 (Simulation time: 06 hr 06 min 44 sec)
*** Reached end of trace: (1, "traces/ocean_8t/ocean1.champsimtrace")
Heartbeat CPU 3 instructions: 830000031 cycles: 207514172 heartbeat IPC: 4 cumulative IPC: 4 (Simulation time: 06 hr 10 min 46 sec)
Heartbeat CPU 2 instructions: 830000015 cycles: 207516675 heartbeat IPC: 4 cumulative IPC: 4 (Simulation time: 06 hr 10 min 46 sec)
Heartbeat CPU 3 instructions: 840000031 cycles: 210014172 heartbeat IPC: 4 cumulative IPC: 4 (Simulation time: 06 hr 14 min 56 sec)
Heartbeat CPU 2 instructions: 840000015 cycles: 210016675 heartbeat IPC: 4 cumulative IPC: 4 (Simulation time: 06 hr 14 min 56 sec)
Heartbeat CPU 3 instructions: 850000031 cycles: 212514172 heartbeat IPC: 4 cumulative IPC: 4 (Simulation time: 06 hr 19 min 06 sec)
Heartbeat CPU 2 instructions: 850000015 cycles: 212516675 heartbeat IPC: 4 cumulative IPC: 4 (Simulation time: 06 hr 19 min 07 sec)
*** Reached end of trace: (2, "traces/ocean_8t/ocean2.champsimtrace")
Heartbeat CPU 3 instructions: 860000031 cycles: 215014172 heartbeat IPC: 4 cumulative IPC: 4 (Simulation time: 06 hr 23 min 12 sec)
Heartbeat CPU 2 instructions: 860000016 cycles: 215016698 heartbeat IPC: 4 cumulative IPC: 4 (Simulation time: 06 hr 23 min 13 sec)
*** Reached end of trace: (3, "traces/ocean_8t/ocean3.champsimtrace")
Heartbeat CPU 3 instructions: 870000034 cycles: 217514189 heartbeat IPC: 4 cumulative IPC: 4 (Simulation time: 06 hr 27 min 20 sec)
Heartbeat CPU 2 instructions: 870000016 cycles: 217516698 heartbeat IPC: 4 cumulative IPC: 4 (Simulation time: 06 hr 27 min 20 sec)
Heartbeat CPU 3 instructions: 880000034 cycles: 220014189 heartbeat IPC: 4 cumulative IPC: 4 (Simulation time: 06 hr 31 min 27 sec)
Heartbeat CPU 2 instructions: 880000016 cycles: 220016698 heartbeat IPC: 4 cumulative IPC: 4 (Simulation time: 06 hr 31 min 27 sec)
Heartbeat CPU 0 instructions: 70000013 cycles: 222403854 heartbeat IPC: 0.1466 cumulative IPC: 0.1727 (Simulation time: 06 hr 35 min 22 sec)
Heartbeat CPU 3 instructions: 890000034 cycles: 222514189 heartbeat IPC: 4 cumulative IPC: 4 (Simulation time: 06 hr 35 min 33 sec)
Heartbeat CPU 2 instructions: 890000016 cycles: 222516698 heartbeat IPC: 4 cumulative IPC: 4 (Simulation time: 06 hr 35 min 33 sec)
Heartbeat CPU 1 instructions: 280000026 cycles: 222882903 heartbeat IPC: 0.4492 cumulative IPC: 0.2948 (Simulation time: 06 hr 36 min 10 sec)
Heartbeat CPU 3 instructions: 900000034 cycles: 225014189 heartbeat IPC: 4 cumulative IPC: 4 (Simulation time: 06 hr 39 min 51 sec)
Heartbeat CPU 2 instructions: 900000016 cycles: 225016698 heartbeat IPC: 4 cumulative IPC: 4 (Simulation time: 06 hr 39 min 52 sec)
*** Reached end of trace: (2, "traces/ocean_8t/ocean2.champsimtrace")
*** Reached end of trace: (3, "traces/ocean_8t/ocean3.champsimtrace")
Heartbeat CPU 3 instructions: 910000037 cycles: 227514206 heartbeat IPC: 4 cumulative IPC: 4 (Simulation time: 06 hr 44 min 00 sec)
Heartbeat CPU 2 instructions: 910000017 cycles: 227516721 heartbeat IPC: 4 cumulative IPC: 4 (Simulation time: 06 hr 44 min 00 sec)
Heartbeat CPU 3 instructions: 920000037 cycles: 230014206 heartbeat IPC: 4 cumulative IPC: 4 (Simulation time: 06 hr 48 min 07 sec)
Heartbeat CPU 2 instructions: 920000017 cycles: 230016721 heartbeat IPC: 4 cumulative IPC: 4 (Simulation time: 06 hr 48 min 08 sec)
Heartbeat CPU 3 instructions: 930000037 cycles: 232514206 heartbeat IPC: 4 cumulative IPC: 4 (Simulation time: 06 hr 51 min 58 sec)
Heartbeat CPU 2 instructions: 930000017 cycles: 232516721 heartbeat IPC: 4 cumulative IPC: 4 (Simulation time: 06 hr 51 min 58 sec)
Heartbeat CPU 3 instructions: 940000037 cycles: 235014206 heartbeat IPC: 4 cumulative IPC: 4 (Simulation time: 06 hr 55 min 38 sec)
Heartbeat CPU 2 instructions: 940000017 cycles: 235016721 heartbeat IPC: 4 cumulative IPC: 4 (Simulation time: 06 hr 55 min 38 sec)
*** Reached end of trace: (2, "traces/ocean_8t/ocean2.champsimtrace")
Heartbeat CPU 3 instructions: 950000037 cycles: 237514206 heartbeat IPC: 4 cumulative IPC: 4 (Simulation time: 06 hr 59 min 40 sec)
Heartbeat CPU 2 instructions: 950000018 cycles: 237516744 heartbeat IPC: 4 cumulative IPC: 4 (Simulation time: 06 hr 59 min 40 sec)
*** Reached end of trace: (3, "traces/ocean_8t/ocean3.champsimtrace")
Heartbeat CPU 3 instructions: 960000040 cycles: 240014223 heartbeat IPC: 4 cumulative IPC: 4 (Simulation time: 07 hr 03 min 46 sec)
Heartbeat CPU 2 instructions: 960000018 cycles: 240016744 heartbeat IPC: 4 cumulative IPC: 4 (Simulation time: 07 hr 03 min 46 sec)
Heartbeat CPU 3 instructions: 970000040 cycles: 242514223 heartbeat IPC: 4 cumulative IPC: 4 (Simulation time: 07 hr 07 min 57 sec)
Heartbeat CPU 2 instructions: 970000018 cycles: 242516744 heartbeat IPC: 4 cumulative IPC: 4 (Simulation time: 07 hr 07 min 57 sec)
Heartbeat CPU 3 instructions: 980000040 cycles: 245014223 heartbeat IPC: 4 cumulative IPC: 4 (Simulation time: 07 hr 12 min 19 sec)
Heartbeat CPU 2 instructions: 980000018 cycles: 245016744 heartbeat IPC: 4 cumulative IPC: 4 (Simulation time: 07 hr 12 min 19 sec)
Heartbeat CPU 3 instructions: 990000040 cycles: 247514223 heartbeat IPC: 4 cumulative IPC: 4 (Simulation time: 07 hr 16 min 40 sec)
Heartbeat CPU 2 instructions: 990000018 cycles: 247516744 heartbeat IPC: 4 cumulative IPC: 4 (Simulation time: 07 hr 16 min 40 sec)
*** Reached end of trace: (2, "traces/ocean_8t/ocean2.champsimtrace")
Heartbeat CPU 1 instructions: 290000027 cycles: 249511600 heartbeat IPC: 0.3755 cumulative IPC: 0.3099 (Simulation time: 07 hr 20 min 07 sec)
*** Reached end of trace: (3, "traces/ocean_8t/ocean3.champsimtrace")
Heartbeat CPU 3 instructions: 1000000043 cycles: 250014240 heartbeat IPC: 4 cumulative IPC: 4 (Simulation time: 07 hr 20 min 59 sec)
Heartbeat CPU 2 instructions: 1000000019 cycles: 250016767 heartbeat IPC: 4 cumulative IPC: 4 (Simulation time: 07 hr 20 min 59 sec)
Heartbeat CPU 3 instructions: 1010000043 cycles: 252514240 heartbeat IPC: 4 cumulative IPC: 4 (Simulation time: 07 hr 25 min 23 sec)
Heartbeat CPU 2 instructions: 1010000019 cycles: 252516767 heartbeat IPC: 4 cumulative IPC: 4 (Simulation time: 07 hr 25 min 24 sec)
Heartbeat CPU 3 instructions: 1020000043 cycles: 255014240 heartbeat IPC: 4 cumulative IPC: 4 (Simulation time: 07 hr 29 min 57 sec)
Heartbeat CPU 2 instructions: 1020000019 cycles: 255016767 heartbeat IPC: 4 cumulative IPC: 4 (Simulation time: 07 hr 29 min 57 sec)
Heartbeat CPU 3 instructions: 1030000043 cycles: 257514240 heartbeat IPC: 4 cumulative IPC: 4 (Simulation time: 07 hr 34 min 25 sec)
Heartbeat CPU 2 instructions: 1030000019 cycles: 257516767 heartbeat IPC: 4 cumulative IPC: 4 (Simulation time: 07 hr 34 min 25 sec)
*** Reached end of trace: (2, "traces/ocean_8t/ocean2.champsimtrace")
Heartbeat CPU 3 instructions: 1040000043 cycles: 260014240 heartbeat IPC: 4 cumulative IPC: 4 (Simulation time: 07 hr 38 min 50 sec)
Heartbeat CPU 2 instructions: 1040000020 cycles: 260016790 heartbeat IPC: 4 cumulative IPC: 4 (Simulation time: 07 hr 38 min 50 sec)
*** Reached end of trace: (3, "traces/ocean_8t/ocean3.champsimtrace")
Heartbeat CPU 3 instructions: 1050000046 cycles: 262514257 heartbeat IPC: 4 cumulative IPC: 4 (Simulation time: 07 hr 43 min 08 sec)
Heartbeat CPU 2 instructions: 1050000020 cycles: 262516790 heartbeat IPC: 4 cumulative IPC: 4 (Simulation time: 07 hr 43 min 08 sec)
Heartbeat CPU 3 instructions: 1060000046 cycles: 265014257 heartbeat IPC: 4 cumulative IPC: 4 (Simulation time: 07 hr 47 min 20 sec)
Heartbeat CPU 2 instructions: 1060000020 cycles: 265016790 heartbeat IPC: 4 cumulative IPC: 4 (Simulation time: 07 hr 47 min 20 sec)
Heartbeat CPU 3 instructions: 1070000046 cycles: 267514257 heartbeat IPC: 4 cumulative IPC: 4 (Simulation time: 07 hr 51 min 38 sec)
Heartbeat CPU 2 instructions: 1070000020 cycles: 267516790 heartbeat IPC: 4 cumulative IPC: 4 (Simulation time: 07 hr 51 min 39 sec)
Heartbeat CPU 3 instructions: 1080000046 cycles: 270014257 heartbeat IPC: 4 cumulative IPC: 4 (Simulation time: 07 hr 55 min 54 sec)
Heartbeat CPU 2 instructions: 1080000020 cycles: 270016790 heartbeat IPC: 4 cumulative IPC: 4 (Simulation time: 07 hr 55 min 55 sec)
*** Reached end of trace: (2, "traces/ocean_8t/ocean2.champsimtrace")
*** Reached end of trace: (3, "traces/ocean_8t/ocean3.champsimtrace")
Heartbeat CPU 3 instructions: 1090000049 cycles: 272514274 heartbeat IPC: 4 cumulative IPC: 4 (Simulation time: 08 hr 00 min 05 sec)
Heartbeat CPU 2 instructions: 1090000021 cycles: 272516813 heartbeat IPC: 4 cumulative IPC: 4 (Simulation time: 08 hr 00 min 05 sec)
Heartbeat CPU 3 instructions: 1100000049 cycles: 275014274 heartbeat IPC: 4 cumulative IPC: 4 (Simulation time: 08 hr 04 min 12 sec)
Heartbeat CPU 2 instructions: 1100000021 cycles: 275016813 heartbeat IPC: 4 cumulative IPC: 4 (Simulation time: 08 hr 04 min 12 sec)
Heartbeat CPU 3 instructions: 1110000049 cycles: 277514274 heartbeat IPC: 4 cumulative IPC: 4 (Simulation time: 08 hr 08 min 19 sec)
Heartbeat CPU 2 instructions: 1110000021 cycles: 277516813 heartbeat IPC: 4 cumulative IPC: 4 (Simulation time: 08 hr 08 min 19 sec)
Heartbeat CPU 0 instructions: 80000016 cycles: 279914420 heartbeat IPC: 0.1739 cumulative IPC: 0.1731 (Simulation time: 08 hr 12 min 16 sec)
Heartbeat CPU 3 instructions: 1120000049 cycles: 280014274 heartbeat IPC: 4 cumulative IPC: 4 (Simulation time: 08 hr 12 min 25 sec)
Heartbeat CPU 2 instructions: 1120000021 cycles: 280016813 heartbeat IPC: 4 cumulative IPC: 4 (Simulation time: 08 hr 12 min 25 sec)
*** Reached end of trace: (2, "traces/ocean_8t/ocean2.champsimtrace")
Heartbeat CPU 3 instructions: 1130000049 cycles: 282514274 heartbeat IPC: 4 cumulative IPC: 4 (Simulation time: 08 hr 16 min 41 sec)
Heartbeat CPU 2 instructions: 1130000022 cycles: 282516836 heartbeat IPC: 4 cumulative IPC: 4 (Simulation time: 08 hr 16 min 41 sec)
*** Reached end of trace: (3, "traces/ocean_8t/ocean3.champsimtrace")
Heartbeat CPU 3 instructions: 1140000052 cycles: 285014291 heartbeat IPC: 4 cumulative IPC: 4 (Simulation time: 08 hr 20 min 52 sec)
Heartbeat CPU 2 instructions: 1140000022 cycles: 285016836 heartbeat IPC: 4 cumulative IPC: 4 (Simulation time: 08 hr 20 min 52 sec)
Heartbeat CPU 3 instructions: 1150000052 cycles: 287514291 heartbeat IPC: 4 cumulative IPC: 4 (Simulation time: 08 hr 24 min 57 sec)
Heartbeat CPU 2 instructions: 1150000022 cycles: 287516836 heartbeat IPC: 4 cumulative IPC: 4 (Simulation time: 08 hr 24 min 57 sec)
Heartbeat CPU 3 instructions: 1160000052 cycles: 290014291 heartbeat IPC: 4 cumulative IPC: 4 (Simulation time: 08 hr 29 min 01 sec)
Heartbeat CPU 2 instructions: 1160000022 cycles: 290016836 heartbeat IPC: 4 cumulative IPC: 4 (Simulation time: 08 hr 29 min 01 sec)
Heartbeat CPU 1 instructions: 300000030 cycles: 290882963 heartbeat IPC: 0.2417 cumulative IPC: 0.2946 (Simulation time: 08 hr 30 min 33 sec)
Heartbeat CPU 3 instructions: 1170000052 cycles: 292514291 heartbeat IPC: 4 cumulative IPC: 4 (Simulation time: 08 hr 33 min 20 sec)
Heartbeat CPU 2 instructions: 1170000022 cycles: 292516836 heartbeat IPC: 4 cumulative IPC: 4 (Simulation time: 08 hr 33 min 20 sec)
*** Reached end of trace: (2, "traces/ocean_8t/ocean2.champsimtrace")
Heartbeat CPU 3 instructions: 1180000052 cycles: 295014291 heartbeat IPC: 4 cumulative IPC: 4 (Simulation time: 08 hr 37 min 28 sec)
Heartbeat CPU 2 instructions: 1180000023 cycles: 295016859 heartbeat IPC: 4 cumulative IPC: 4 (Simulation time: 08 hr 37 min 29 sec)
*** Reached end of trace: (3, "traces/ocean_8t/ocean3.champsimtrace")
Heartbeat CPU 3 instructions: 1190000055 cycles: 297514308 heartbeat IPC: 4 cumulative IPC: 4 (Simulation time: 08 hr 41 min 33 sec)
Heartbeat CPU 2 instructions: 1190000023 cycles: 297516859 heartbeat IPC: 4 cumulative IPC: 4 (Simulation time: 08 hr 41 min 33 sec)
Heartbeat CPU 3 instructions: 1200000055 cycles: 300014308 heartbeat IPC: 4 cumulative IPC: 4 (Simulation time: 08 hr 45 min 35 sec)
Heartbeat CPU 2 instructions: 1200000023 cycles: 300016859 heartbeat IPC: 4 cumulative IPC: 4 (Simulation time: 08 hr 45 min 35 sec)
Heartbeat CPU 3 instructions: 1210000055 cycles: 302514308 heartbeat IPC: 4 cumulative IPC: 4 (Simulation time: 08 hr 49 min 38 sec)
Heartbeat CPU 2 instructions: 1210000023 cycles: 302516859 heartbeat IPC: 4 cumulative IPC: 4 (Simulation time: 08 hr 49 min 38 sec)
Heartbeat CPU 3 instructions: 1220000055 cycles: 305014308 heartbeat IPC: 4 cumulative IPC: 4 (Simulation time: 08 hr 53 min 42 sec)
Heartbeat CPU 2 instructions: 1220000023 cycles: 305016859 heartbeat IPC: 4 cumulative IPC: 4 (Simulation time: 08 hr 53 min 42 sec)
*** Reached end of trace: (2, "traces/ocean_8t/ocean2.champsimtrace")
*** Reached end of trace: (3, "traces/ocean_8t/ocean3.champsimtrace")
Heartbeat CPU 3 instructions: 1230000058 cycles: 307514325 heartbeat IPC: 4 cumulative IPC: 4 (Simulation time: 08 hr 57 min 40 sec)
Heartbeat CPU 2 instructions: 1230000024 cycles: 307516882 heartbeat IPC: 4 cumulative IPC: 4 (Simulation time: 08 hr 57 min 41 sec)
Heartbeat CPU 3 instructions: 1240000058 cycles: 310014325 heartbeat IPC: 4 cumulative IPC: 4 (Simulation time: 09 hr 01 min 42 sec)
Heartbeat CPU 2 instructions: 1240000024 cycles: 310016882 heartbeat IPC: 4 cumulative IPC: 4 (Simulation time: 09 hr 01 min 42 sec)
Heartbeat CPU 3 instructions: 1250000058 cycles: 312514325 heartbeat IPC: 4 cumulative IPC: 4 (Simulation time: 09 hr 05 min 52 sec)
Heartbeat CPU 2 instructions: 1250000024 cycles: 312516882 heartbeat IPC: 4 cumulative IPC: 4 (Simulation time: 09 hr 05 min 52 sec)
Heartbeat CPU 3 instructions: 1260000058 cycles: 315014325 heartbeat IPC: 4 cumulative IPC: 4 (Simulation time: 09 hr 10 min 04 sec)
Heartbeat CPU 2 instructions: 1260000024 cycles: 315016882 heartbeat IPC: 4 cumulative IPC: 4 (Simulation time: 09 hr 10 min 05 sec)
*** Reached end of trace: (2, "traces/ocean_8t/ocean2.champsimtrace")
Heartbeat CPU 3 instructions: 1270000058 cycles: 317514325 heartbeat IPC: 4 cumulative IPC: 4 (Simulation time: 09 hr 14 min 12 sec)
Heartbeat CPU 2 instructions: 1270000025 cycles: 317516905 heartbeat IPC: 4 cumulative IPC: 4 (Simulation time: 09 hr 14 min 13 sec)
*** Reached end of trace: (3, "traces/ocean_8t/ocean3.champsimtrace")
Heartbeat CPU 3 instructions: 1280000061 cycles: 320014342 heartbeat IPC: 4 cumulative IPC: 4 (Simulation time: 09 hr 18 min 24 sec)
Heartbeat CPU 2 instructions: 1280000025 cycles: 320016905 heartbeat IPC: 4 cumulative IPC: 4 (Simulation time: 09 hr 18 min 25 sec)
Heartbeat CPU 3 instructions: 1290000061 cycles: 322514342 heartbeat IPC: 4 cumulative IPC: 4 (Simulation time: 09 hr 22 min 42 sec)
Heartbeat CPU 2 instructions: 1290000025 cycles: 322516905 heartbeat IPC: 4 cumulative IPC: 4 (Simulation time: 09 hr 22 min 42 sec)
Heartbeat CPU 3 instructions: 1300000061 cycles: 325014342 heartbeat IPC: 4 cumulative IPC: 4 (Simulation time: 09 hr 26 min 51 sec)
Heartbeat CPU 2 instructions: 1300000025 cycles: 325016905 heartbeat IPC: 4 cumulative IPC: 4 (Simulation time: 09 hr 26 min 51 sec)
Heartbeat CPU 3 instructions: 1310000061 cycles: 327514342 heartbeat IPC: 4 cumulative IPC: 4 (Simulation time: 09 hr 30 min 55 sec)
Heartbeat CPU 2 instructions: 1310000025 cycles: 327516905 heartbeat IPC: 4 cumulative IPC: 4 (Simulation time: 09 hr 30 min 55 sec)
*** Reached end of trace: (2, "traces/ocean_8t/ocean2.champsimtrace")
*** Reached end of trace: (3, "traces/ocean_8t/ocean3.champsimtrace")
Heartbeat CPU 3 instructions: 1320000064 cycles: 330014359 heartbeat IPC: 4 cumulative IPC: 4 (Simulation time: 09 hr 35 min 02 sec)
Heartbeat CPU 2 instructions: 1320000026 cycles: 330016928 heartbeat IPC: 4 cumulative IPC: 4 (Simulation time: 09 hr 35 min 02 sec)
Heartbeat CPU 3 instructions: 1330000064 cycles: 332514359 heartbeat IPC: 4 cumulative IPC: 4 (Simulation time: 09 hr 39 min 09 sec)
Heartbeat CPU 2 instructions: 1330000026 cycles: 332516928 heartbeat IPC: 4 cumulative IPC: 4 (Simulation time: 09 hr 39 min 10 sec)
Heartbeat CPU 1 instructions: 310000030 cycles: 333801593 heartbeat IPC: 0.233 cumulative IPC: 0.2829 (Simulation time: 09 hr 41 min 17 sec)
Heartbeat CPU 3 instructions: 1340000064 cycles: 335014359 heartbeat IPC: 4 cumulative IPC: 4 (Simulation time: 09 hr 43 min 21 sec)
Heartbeat CPU 2 instructions: 1340000026 cycles: 335016928 heartbeat IPC: 4 cumulative IPC: 4 (Simulation time: 09 hr 43 min 21 sec)
Heartbeat CPU 3 instructions: 1350000064 cycles: 337514359 heartbeat IPC: 4 cumulative IPC: 4 (Simulation time: 09 hr 47 min 46 sec)
Heartbeat CPU 2 instructions: 1350000026 cycles: 337516928 heartbeat IPC: 4 cumulative IPC: 4 (Simulation time: 09 hr 47 min 47 sec)
*** Reached end of trace: (2, "traces/ocean_8t/ocean2.champsimtrace")
Heartbeat CPU 3 instructions: 1360000064 cycles: 340014359 heartbeat IPC: 4 cumulative IPC: 4 (Simulation time: 09 hr 51 min 54 sec)
Heartbeat CPU 2 instructions: 1360000027 cycles: 340016951 heartbeat IPC: 4 cumulative IPC: 4 (Simulation time: 09 hr 51 min 54 sec)
*** Reached end of trace: (3, "traces/ocean_8t/ocean3.champsimtrace")
Heartbeat CPU 3 instructions: 1370000067 cycles: 342514376 heartbeat IPC: 4 cumulative IPC: 4 (Simulation time: 09 hr 56 min 06 sec)
Heartbeat CPU 2 instructions: 1370000027 cycles: 342516951 heartbeat IPC: 4 cumulative IPC: 4 (Simulation time: 09 hr 56 min 06 sec)
Heartbeat CPU 3 instructions: 1380000067 cycles: 345014376 heartbeat IPC: 4 cumulative IPC: 4 (Simulation time: 10 hr 00 min 20 sec)
Heartbeat CPU 2 instructions: 1380000027 cycles: 345016951 heartbeat IPC: 4 cumulative IPC: 4 (Simulation time: 10 hr 00 min 20 sec)
Heartbeat CPU 3 instructions: 1390000067 cycles: 347514376 heartbeat IPC: 4 cumulative IPC: 4 (Simulation time: 10 hr 04 min 43 sec)
Heartbeat CPU 2 instructions: 1390000027 cycles: 347516951 heartbeat IPC: 4 cumulative IPC: 4 (Simulation time: 10 hr 04 min 44 sec)
Heartbeat CPU 3 instructions: 1400000067 cycles: 350014376 heartbeat IPC: 4 cumulative IPC: 4 (Simulation time: 10 hr 09 min 16 sec)
Heartbeat CPU 2 instructions: 1400000027 cycles: 350016951 heartbeat IPC: 4 cumulative IPC: 4 (Simulation time: 10 hr 09 min 17 sec)
*** Reached end of trace: (2, "traces/ocean_8t/ocean2.champsimtrace")
*** Reached end of trace: (3, "traces/ocean_8t/ocean3.champsimtrace")
Heartbeat CPU 3 instructions: 1410000070 cycles: 352514393 heartbeat IPC: 4 cumulative IPC: 4 (Simulation time: 10 hr 13 min 46 sec)
Heartbeat CPU 2 instructions: 1410000028 cycles: 352516974 heartbeat IPC: 4 cumulative IPC: 4 (Simulation time: 10 hr 13 min 46 sec)
Heartbeat CPU 0 instructions: 90000018 cycles: 354503285 heartbeat IPC: 0.1341 cumulative IPC: 0.1614 (Simulation time: 10 hr 17 min 21 sec)
Heartbeat CPU 3 instructions: 1420000070 cycles: 355014393 heartbeat IPC: 4 cumulative IPC: 4 (Simulation time: 10 hr 18 min 14 sec)
Heartbeat CPU 2 instructions: 1420000028 cycles: 355016974 heartbeat IPC: 4 cumulative IPC: 4 (Simulation time: 10 hr 18 min 14 sec)
Heartbeat CPU 3 instructions: 1430000070 cycles: 357514393 heartbeat IPC: 4 cumulative IPC: 4 (Simulation time: 10 hr 22 min 31 sec)
Heartbeat CPU 2 instructions: 1430000028 cycles: 357516974 heartbeat IPC: 4 cumulative IPC: 4 (Simulation time: 10 hr 22 min 31 sec)
*** Reached end of trace: (1, "traces/ocean_8t/ocean1.champsimtrace")
Heartbeat CPU 3 instructions: 1440000070 cycles: 360014393 heartbeat IPC: 4 cumulative IPC: 4 (Simulation time: 10 hr 26 min 43 sec)
Heartbeat CPU 2 instructions: 1440000028 cycles: 360016974 heartbeat IPC: 4 cumulative IPC: 4 (Simulation time: 10 hr 26 min 43 sec)
*** Reached end of trace: (2, "traces/ocean_8t/ocean2.champsimtrace")
Heartbeat CPU 3 instructions: 1450000070 cycles: 362514393 heartbeat IPC: 4 cumulative IPC: 4 (Simulation time: 10 hr 30 min 53 sec)
Heartbeat CPU 2 instructions: 1450000029 cycles: 362516997 heartbeat IPC: 4 cumulative IPC: 4 (Simulation time: 10 hr 30 min 53 sec)
Heartbeat CPU 1 instructions: 320000031 cycles: 363179771 heartbeat IPC: 0.3404 cumulative IPC: 0.2895 (Simulation time: 10 hr 31 min 58 sec)
*** Reached end of trace: (3, "traces/ocean_8t/ocean3.champsimtrace")
Heartbeat CPU 3 instructions: 1460000073 cycles: 365014410 heartbeat IPC: 4 cumulative IPC: 4 (Simulation time: 10 hr 35 min 00 sec)
Heartbeat CPU 2 instructions: 1460000029 cycles: 365016997 heartbeat IPC: 4 cumulative IPC: 4 (Simulation time: 10 hr 35 min 00 sec)
*** Reached end of trace: (0, "traces/ocean_8t/ocean0.champsimtrace")
Heartbeat CPU 3 instructions: 1470000073 cycles: 367514410 heartbeat IPC: 4 cumulative IPC: 4 (Simulation time: 10 hr 39 min 12 sec)
Heartbeat CPU 2 instructions: 1470000029 cycles: 367516997 heartbeat IPC: 4 cumulative IPC: 4 (Simulation time: 10 hr 39 min 12 sec)
Heartbeat CPU 3 instructions: 1480000073 cycles: 370014410 heartbeat IPC: 4 cumulative IPC: 4 (Simulation time: 10 hr 43 min 22 sec)
Heartbeat CPU 2 instructions: 1480000029 cycles: 370016997 heartbeat IPC: 4 cumulative IPC: 4 (Simulation time: 10 hr 43 min 22 sec)
Heartbeat CPU 3 instructions: 1490000073 cycles: 372514410 heartbeat IPC: 4 cumulative IPC: 4 (Simulation time: 10 hr 47 min 22 sec)
Heartbeat CPU 2 instructions: 1490000029 cycles: 372516997 heartbeat IPC: 4 cumulative IPC: 4 (Simulation time: 10 hr 47 min 23 sec)
*** Reached end of trace: (2, "traces/ocean_8t/ocean2.champsimtrace")
*** Reached end of trace: (3, "traces/ocean_8t/ocean3.champsimtrace")
Heartbeat CPU 3 instructions: 1500000076 cycles: 375014427 heartbeat IPC: 4 cumulative IPC: 4 (Simulation time: 10 hr 51 min 29 sec)
Heartbeat CPU 2 instructions: 1500000030 cycles: 375017020 heartbeat IPC: 4 cumulative IPC: 4 (Simulation time: 10 hr 51 min 29 sec)
Heartbeat CPU 3 instructions: 1510000076 cycles: 377514427 heartbeat IPC: 4 cumulative IPC: 4 (Simulation time: 10 hr 55 min 26 sec)
Heartbeat CPU 2 instructions: 1510000030 cycles: 377517020 heartbeat IPC: 4 cumulative IPC: 4 (Simulation time: 10 hr 55 min 26 sec)
Heartbeat CPU 3 instructions: 1520000076 cycles: 380014427 heartbeat IPC: 4 cumulative IPC: 4 (Simulation time: 10 hr 59 min 28 sec)
Heartbeat CPU 2 instructions: 1520000030 cycles: 380017020 heartbeat IPC: 4 cumulative IPC: 4 (Simulation time: 10 hr 59 min 28 sec)
Heartbeat CPU 3 instructions: 1530000076 cycles: 382514427 heartbeat IPC: 4 cumulative IPC: 4 (Simulation time: 11 hr 03 min 39 sec)
Heartbeat CPU 2 instructions: 1530000030 cycles: 382517020 heartbeat IPC: 4 cumulative IPC: 4 (Simulation time: 11 hr 03 min 40 sec)
Heartbeat CPU 1 instructions: 330000032 cycles: 383873902 heartbeat IPC: 0.4832 cumulative IPC: 0.304 (Simulation time: 11 hr 05 min 57 sec)
*** Reached end of trace: (2, "traces/ocean_8t/ocean2.champsimtrace")
Heartbeat CPU 3 instructions: 1540000076 cycles: 385014427 heartbeat IPC: 4 cumulative IPC: 4 (Simulation time: 11 hr 07 min 56 sec)
Heartbeat CPU 2 instructions: 1540000031 cycles: 385017043 heartbeat IPC: 4 cumulative IPC: 4 (Simulation time: 11 hr 07 min 57 sec)
*** Reached end of trace: (3, "traces/ocean_8t/ocean3.champsimtrace")
Heartbeat CPU 3 instructions: 1550000079 cycles: 387514444 heartbeat IPC: 4 cumulative IPC: 4 (Simulation time: 11 hr 12 min 00 sec)
Heartbeat CPU 2 instructions: 1550000031 cycles: 387517043 heartbeat IPC: 4 cumulative IPC: 4 (Simulation time: 11 hr 12 min 01 sec)
Heartbeat CPU 3 instructions: 1560000079 cycles: 390014444 heartbeat IPC: 4 cumulative IPC: 4 (Simulation time: 11 hr 16 min 06 sec)
Heartbeat CPU 2 instructions: 1560000031 cycles: 390017043 heartbeat IPC: 4 cumulative IPC: 4 (Simulation time: 11 hr 16 min 07 sec)
Heartbeat CPU 3 instructions: 1570000079 cycles: 392514444 heartbeat IPC: 4 cumulative IPC: 4 (Simulation time: 11 hr 20 min 13 sec)
Heartbeat CPU 2 instructions: 1570000031 cycles: 392517043 heartbeat IPC: 4 cumulative IPC: 4 (Simulation time: 11 hr 20 min 13 sec)
Heartbeat CPU 3 instructions: 1580000079 cycles: 395014444 heartbeat IPC: 4 cumulative IPC: 4 (Simulation time: 11 hr 24 min 29 sec)
Heartbeat CPU 2 instructions: 1580000031 cycles: 395017043 heartbeat IPC: 4 cumulative IPC: 4 (Simulation time: 11 hr 24 min 29 sec)
*** Reached end of trace: (2, "traces/ocean_8t/ocean2.champsimtrace")
*** Reached end of trace: (3, "traces/ocean_8t/ocean3.champsimtrace")
Heartbeat CPU 3 instructions: 1590000082 cycles: 397514461 heartbeat IPC: 4 cumulative IPC: 4 (Simulation time: 11 hr 28 min 26 sec)
Heartbeat CPU 2 instructions: 1590000032 cycles: 397517066 heartbeat IPC: 4 cumulative IPC: 4 (Simulation time: 11 hr 28 min 26 sec)
Heartbeat CPU 0 instructions: 100000022 cycles: 397772228 heartbeat IPC: 0.2311 cumulative IPC: 0.1717 (Simulation time: 11 hr 28 min 54 sec)
Heartbeat CPU 3 instructions: 1600000082 cycles: 400014461 heartbeat IPC: 4 cumulative IPC: 4 (Simulation time: 11 hr 32 min 46 sec)
Heartbeat CPU 2 instructions: 1600000032 cycles: 400017066 heartbeat IPC: 4 cumulative IPC: 4 (Simulation time: 11 hr 32 min 47 sec)
Heartbeat CPU 3 instructions: 1610000082 cycles: 402514461 heartbeat IPC: 4 cumulative IPC: 4 (Simulation time: 11 hr 36 min 50 sec)
Heartbeat CPU 2 instructions: 1610000032 cycles: 402517066 heartbeat IPC: 4 cumulative IPC: 4 (Simulation time: 11 hr 36 min 50 sec)
Heartbeat CPU 3 instructions: 1620000082 cycles: 405014461 heartbeat IPC: 4 cumulative IPC: 4 (Simulation time: 11 hr 40 min 51 sec)
Heartbeat CPU 2 instructions: 1620000032 cycles: 405017066 heartbeat IPC: 4 cumulative IPC: 4 (Simulation time: 11 hr 40 min 51 sec)
*** Reached end of trace: (2, "traces/ocean_8t/ocean2.champsimtrace")
Heartbeat CPU 3 instructions: 1630000082 cycles: 407514461 heartbeat IPC: 4 cumulative IPC: 4 (Simulation time: 11 hr 44 min 58 sec)
Heartbeat CPU 2 instructions: 1630000033 cycles: 407517089 heartbeat IPC: 4 cumulative IPC: 4 (Simulation time: 11 hr 44 min 58 sec)
*** Reached end of trace: (3, "traces/ocean_8t/ocean3.champsimtrace")
Heartbeat CPU 3 instructions: 1640000085 cycles: 410014478 heartbeat IPC: 4 cumulative IPC: 4 (Simulation time: 11 hr 49 min 07 sec)
Heartbeat CPU 2 instructions: 1640000033 cycles: 410017089 heartbeat IPC: 4 cumulative IPC: 4 (Simulation time: 11 hr 49 min 07 sec)
Heartbeat CPU 1 instructions: 340000034 cycles: 412456507 heartbeat IPC: 0.3499 cumulative IPC: 0.3083 (Simulation time: 11 hr 53 min 08 sec)
Heartbeat CPU 3 instructions: 1650000085 cycles: 412514478 heartbeat IPC: 4 cumulative IPC: 4 (Simulation time: 11 hr 53 min 15 sec)
Heartbeat CPU 2 instructions: 1650000033 cycles: 412517089 heartbeat IPC: 4 cumulative IPC: 4 (Simulation time: 11 hr 53 min 15 sec)
Heartbeat CPU 3 instructions: 1660000085 cycles: 415014478 heartbeat IPC: 4 cumulative IPC: 4 (Simulation time: 11 hr 57 min 21 sec)
Heartbeat CPU 2 instructions: 1660000033 cycles: 415017089 heartbeat IPC: 4 cumulative IPC: 4 (Simulation time: 11 hr 57 min 21 sec)
Heartbeat CPU 3 instructions: 1670000085 cycles: 417514478 heartbeat IPC: 4 cumulative IPC: 4 (Simulation time: 12 hr 01 min 26 sec)
Heartbeat CPU 2 instructions: 1670000033 cycles: 417517089 heartbeat IPC: 4 cumulative IPC: 4 (Simulation time: 12 hr 01 min 27 sec)
*** Reached end of trace: (2, "traces/ocean_8t/ocean2.champsimtrace")
*** Reached end of trace: (3, "traces/ocean_8t/ocean3.champsimtrace")
Heartbeat CPU 3 instructions: 1680000088 cycles: 420014495 heartbeat IPC: 4 cumulative IPC: 4 (Simulation time: 12 hr 05 min 34 sec)
Heartbeat CPU 2 instructions: 1680000034 cycles: 420017112 heartbeat IPC: 4 cumulative IPC: 4 (Simulation time: 12 hr 05 min 34 sec)
Heartbeat CPU 3 instructions: 1690000088 cycles: 422514495 heartbeat IPC: 4 cumulative IPC: 4 (Simulation time: 12 hr 09 min 58 sec)
Heartbeat CPU 2 instructions: 1690000034 cycles: 422517112 heartbeat IPC: 4 cumulative IPC: 4 (Simulation time: 12 hr 09 min 59 sec)
Heartbeat CPU 3 instructions: 1700000088 cycles: 425014495 heartbeat IPC: 4 cumulative IPC: 4 (Simulation time: 12 hr 14 min 09 sec)
Heartbeat CPU 2 instructions: 1700000034 cycles: 425017112 heartbeat IPC: 4 cumulative IPC: 4 (Simulation time: 12 hr 14 min 09 sec)
Heartbeat CPU 3 instructions: 1710000088 cycles: 427514495 heartbeat IPC: 4 cumulative IPC: 4 (Simulation time: 12 hr 18 min 22 sec)
Heartbeat CPU 2 instructions: 1710000034 cycles: 427517112 heartbeat IPC: 4 cumulative IPC: 4 (Simulation time: 12 hr 18 min 22 sec)
*** Reached end of trace: (2, "traces/ocean_8t/ocean2.champsimtrace")
Heartbeat CPU 3 instructions: 1720000088 cycles: 430014495 heartbeat IPC: 4 cumulative IPC: 4 (Simulation time: 12 hr 22 min 32 sec)
Heartbeat CPU 2 instructions: 1720000035 cycles: 430017135 heartbeat IPC: 4 cumulative IPC: 4 (Simulation time: 12 hr 22 min 32 sec)
*** Reached end of trace: (3, "traces/ocean_8t/ocean3.champsimtrace")
Heartbeat CPU 3 instructions: 1730000091 cycles: 432514512 heartbeat IPC: 4 cumulative IPC: 4 (Simulation time: 12 hr 26 min 45 sec)
Heartbeat CPU 2 instructions: 1730000035 cycles: 432517135 heartbeat IPC: 4 cumulative IPC: 4 (Simulation time: 12 hr 26 min 45 sec)
Simulation finished CPU 1 instructions: 100000002 cycles: 328053552 cumulative IPC: 0.3048 (Simulation time: 12 hr 30 min 23 sec)
Heartbeat CPU 3 instructions: 1740000091 cycles: 435014512 heartbeat IPC: 4 cumulative IPC: 4 (Simulation time: 12 hr 30 min 58 sec)
Heartbeat CPU 2 instructions: 1740000035 cycles: 435017135 heartbeat IPC: 4 cumulative IPC: 4 (Simulation time: 12 hr 30 min 58 sec)
Heartbeat CPU 3 instructions: 1750000091 cycles: 437514512 heartbeat IPC: 4 cumulative IPC: 4 (Simulation time: 12 hr 35 min 20 sec)
Heartbeat CPU 2 instructions: 1750000035 cycles: 437517135 heartbeat IPC: 4 cumulative IPC: 4 (Simulation time: 12 hr 35 min 20 sec)
Heartbeat CPU 3 instructions: 1760000091 cycles: 440014512 heartbeat IPC: 4 cumulative IPC: 4 (Simulation time: 12 hr 39 min 33 sec)
Heartbeat CPU 2 instructions: 1760000035 cycles: 440017135 heartbeat IPC: 4 cumulative IPC: 4 (Simulation time: 12 hr 39 min 34 sec)
*** Reached end of trace: (2, "traces/ocean_8t/ocean2.champsimtrace")
Heartbeat CPU 3 instructions: 1770000091 cycles: 442514512 heartbeat IPC: 4 cumulative IPC: 4 (Simulation time: 12 hr 43 min 44 sec)
Heartbeat CPU 2 instructions: 1770000036 cycles: 442517158 heartbeat IPC: 4 cumulative IPC: 4 (Simulation time: 12 hr 43 min 44 sec)
*** Reached end of trace: (3, "traces/ocean_8t/ocean3.champsimtrace")
Heartbeat CPU 3 instructions: 1780000094 cycles: 445014529 heartbeat IPC: 4 cumulative IPC: 4 (Simulation time: 12 hr 48 min 06 sec)
Heartbeat CPU 2 instructions: 1780000036 cycles: 445017158 heartbeat IPC: 4 cumulative IPC: 4 (Simulation time: 12 hr 48 min 06 sec)
Heartbeat CPU 3 instructions: 1790000094 cycles: 447514529 heartbeat IPC: 4 cumulative IPC: 4 (Simulation time: 12 hr 52 min 19 sec)
Heartbeat CPU 2 instructions: 1790000036 cycles: 447517158 heartbeat IPC: 4 cumulative IPC: 4 (Simulation time: 12 hr 52 min 19 sec)
Heartbeat CPU 3 instructions: 1800000094 cycles: 450014529 heartbeat IPC: 4 cumulative IPC: 4 (Simulation time: 12 hr 56 min 31 sec)
Heartbeat CPU 2 instructions: 1800000036 cycles: 450017158 heartbeat IPC: 4 cumulative IPC: 4 (Simulation time: 12 hr 56 min 31 sec)
Heartbeat CPU 0 instructions: 110000024 cycles: 451062944 heartbeat IPC: 0.1876 cumulative IPC: 0.1742 (Simulation time: 12 hr 58 min 14 sec)
*** Reached end of trace: (2, "traces/ocean_8t/ocean2.champsimtrace")
Heartbeat CPU 3 instructions: 1810000094 cycles: 452514529 heartbeat IPC: 4 cumulative IPC: 4 (Simulation time: 13 hr 00 min 39 sec)
Heartbeat CPU 2 instructions: 1810000037 cycles: 452517181 heartbeat IPC: 4 cumulative IPC: 4 (Simulation time: 13 hr 00 min 39 sec)
*** Reached end of trace: (3, "traces/ocean_8t/ocean3.champsimtrace")
Heartbeat CPU 1 instructions: 350000037 cycles: 454886981 heartbeat IPC: 0.2357 cumulative IPC: 0.2994 (Simulation time: 13 hr 04 min 37 sec)
Heartbeat CPU 3 instructions: 1820000097 cycles: 455014546 heartbeat IPC: 4 cumulative IPC: 4 (Simulation time: 13 hr 04 min 50 sec)
Heartbeat CPU 2 instructions: 1820000037 cycles: 455017181 heartbeat IPC: 4 cumulative IPC: 4 (Simulation time: 13 hr 04 min 50 sec)
Heartbeat CPU 3 instructions: 1830000097 cycles: 457514546 heartbeat IPC: 4 cumulative IPC: 4 (Simulation time: 13 hr 09 min 00 sec)
Heartbeat CPU 2 instructions: 1830000037 cycles: 457517181 heartbeat IPC: 4 cumulative IPC: 4 (Simulation time: 13 hr 09 min 00 sec)
Heartbeat CPU 3 instructions: 1840000097 cycles: 460014546 heartbeat IPC: 4 cumulative IPC: 4 (Simulation time: 13 hr 13 min 13 sec)
Heartbeat CPU 2 instructions: 1840000037 cycles: 460017181 heartbeat IPC: 4 cumulative IPC: 4 (Simulation time: 13 hr 13 min 13 sec)
Heartbeat CPU 3 instructions: 1850000097 cycles: 462514546 heartbeat IPC: 4 cumulative IPC: 4 (Simulation time: 13 hr 17 min 23 sec)
Heartbeat CPU 2 instructions: 1850000037 cycles: 462517181 heartbeat IPC: 4 cumulative IPC: 4 (Simulation time: 13 hr 17 min 23 sec)
*** Reached end of trace: (2, "traces/ocean_8t/ocean2.champsimtrace")
Heartbeat CPU 3 instructions: 1860000097 cycles: 465014546 heartbeat IPC: 4 cumulative IPC: 4 (Simulation time: 13 hr 21 min 33 sec)
Heartbeat CPU 2 instructions: 1860000038 cycles: 465017204 heartbeat IPC: 4 cumulative IPC: 4 (Simulation time: 13 hr 21 min 33 sec)
*** Reached end of trace: (3, "traces/ocean_8t/ocean3.champsimtrace")
Heartbeat CPU 3 instructions: 1870000100 cycles: 467514563 heartbeat IPC: 4 cumulative IPC: 4 (Simulation time: 13 hr 25 min 48 sec)
Heartbeat CPU 2 instructions: 1870000038 cycles: 467517204 heartbeat IPC: 4 cumulative IPC: 4 (Simulation time: 13 hr 25 min 48 sec)
Heartbeat CPU 3 instructions: 1880000100 cycles: 470014563 heartbeat IPC: 4 cumulative IPC: 4 (Simulation time: 13 hr 29 min 58 sec)
Heartbeat CPU 2 instructions: 1880000038 cycles: 470017204 heartbeat IPC: 4 cumulative IPC: 4 (Simulation time: 13 hr 29 min 59 sec)
Heartbeat CPU 3 instructions: 1890000100 cycles: 472514563 heartbeat IPC: 4 cumulative IPC: 4 (Simulation time: 13 hr 34 min 18 sec)
Heartbeat CPU 2 instructions: 1890000038 cycles: 472517204 heartbeat IPC: 4 cumulative IPC: 4 (Simulation time: 13 hr 34 min 18 sec)
*** Reached end of trace: (2, "traces/ocean_8t/ocean2.champsimtrace")
Heartbeat CPU 3 instructions: 1900000100 cycles: 475014563 heartbeat IPC: 4 cumulative IPC: 4 (Simulation time: 13 hr 38 min 31 sec)
Heartbeat CPU 2 instructions: 1900000039 cycles: 475017227 heartbeat IPC: 4 cumulative IPC: 4 (Simulation time: 13 hr 38 min 32 sec)
*** Reached end of trace: (3, "traces/ocean_8t/ocean3.champsimtrace")
Heartbeat CPU 3 instructions: 1910000103 cycles: 477514580 heartbeat IPC: 4 cumulative IPC: 4 (Simulation time: 13 hr 42 min 43 sec)
Heartbeat CPU 2 instructions: 1910000039 cycles: 477517227 heartbeat IPC: 4 cumulative IPC: 4 (Simulation time: 13 hr 42 min 43 sec)
Heartbeat CPU 3 instructions: 1920000103 cycles: 480014580 heartbeat IPC: 4 cumulative IPC: 4 (Simulation time: 13 hr 46 min 55 sec)
Heartbeat CPU 2 instructions: 1920000039 cycles: 480017227 heartbeat IPC: 4 cumulative IPC: 4 (Simulation time: 13 hr 46 min 55 sec)
Heartbeat CPU 3 instructions: 1930000103 cycles: 482514580 heartbeat IPC: 4 cumulative IPC: 4 (Simulation time: 13 hr 51 min 01 sec)
Heartbeat CPU 2 instructions: 1930000039 cycles: 482517227 heartbeat IPC: 4 cumulative IPC: 4 (Simulation time: 13 hr 51 min 02 sec)
Heartbeat CPU 3 instructions: 1940000103 cycles: 485014580 heartbeat IPC: 4 cumulative IPC: 4 (Simulation time: 13 hr 55 min 06 sec)
Heartbeat CPU 2 instructions: 1940000039 cycles: 485017227 heartbeat IPC: 4 cumulative IPC: 4 (Simulation time: 13 hr 55 min 06 sec)
*** Reached end of trace: (2, "traces/ocean_8t/ocean2.champsimtrace")
Heartbeat CPU 3 instructions: 1950000103 cycles: 487514580 heartbeat IPC: 4 cumulative IPC: 4 (Simulation time: 13 hr 59 min 13 sec)
Heartbeat CPU 2 instructions: 1950000040 cycles: 487517250 heartbeat IPC: 4 cumulative IPC: 4 (Simulation time: 13 hr 59 min 13 sec)
*** Reached end of trace: (3, "traces/ocean_8t/ocean3.champsimtrace")
Heartbeat CPU 3 instructions: 1960000106 cycles: 490014597 heartbeat IPC: 4 cumulative IPC: 4 (Simulation time: 14 hr 03 min 27 sec)
Heartbeat CPU 2 instructions: 1960000040 cycles: 490017250 heartbeat IPC: 4 cumulative IPC: 4 (Simulation time: 14 hr 03 min 27 sec)
Heartbeat CPU 1 instructions: 360000038 cycles: 492163318 heartbeat IPC: 0.2683 cumulative IPC: 0.2964 (Simulation time: 14 hr 06 min 58 sec)
Heartbeat CPU 3 instructions: 1970000106 cycles: 492514597 heartbeat IPC: 4 cumulative IPC: 4 (Simulation time: 14 hr 07 min 34 sec)
Heartbeat CPU 2 instructions: 1970000040 cycles: 492517250 heartbeat IPC: 4 cumulative IPC: 4 (Simulation time: 14 hr 07 min 34 sec)
Heartbeat CPU 3 instructions: 1980000106 cycles: 495014597 heartbeat IPC: 4 cumulative IPC: 4 (Simulation time: 14 hr 11 min 41 sec)
Heartbeat CPU 2 instructions: 1980000040 cycles: 495017250 heartbeat IPC: 4 cumulative IPC: 4 (Simulation time: 14 hr 11 min 41 sec)
*** Reached end of trace: (2, "traces/ocean_8t/ocean2.champsimtrace")
Heartbeat CPU 3 instructions: 1990000106 cycles: 497514597 heartbeat IPC: 4 cumulative IPC: 4 (Simulation time: 14 hr 15 min 50 sec)
Heartbeat CPU 2 instructions: 1990000041 cycles: 497517273 heartbeat IPC: 4 cumulative IPC: 4 (Simulation time: 14 hr 15 min 50 sec)
*** Reached end of trace: (3, "traces/ocean_8t/ocean3.champsimtrace")
Heartbeat CPU 3 instructions: 2000000109 cycles: 500014614 heartbeat IPC: 4 cumulative IPC: 4 (Simulation time: 14 hr 20 min 06 sec)
Heartbeat CPU 2 instructions: 2000000041 cycles: 500017273 heartbeat IPC: 4 cumulative IPC: 4 (Simulation time: 14 hr 20 min 06 sec)
Heartbeat CPU 3 instructions: 2010000109 cycles: 502514614 heartbeat IPC: 4 cumulative IPC: 4 (Simulation time: 14 hr 24 min 16 sec)
Heartbeat CPU 2 instructions: 2010000041 cycles: 502517273 heartbeat IPC: 4 cumulative IPC: 4 (Simulation time: 14 hr 24 min 16 sec)
Heartbeat CPU 3 instructions: 2020000109 cycles: 505014614 heartbeat IPC: 4 cumulative IPC: 4 (Simulation time: 14 hr 28 min 21 sec)
Heartbeat CPU 2 instructions: 2020000041 cycles: 505017273 heartbeat IPC: 4 cumulative IPC: 4 (Simulation time: 14 hr 28 min 22 sec)
*** Reached end of trace: (1, "traces/ocean_8t/ocean1.champsimtrace")
Heartbeat CPU 3 instructions: 2030000109 cycles: 507514614 heartbeat IPC: 4 cumulative IPC: 4 (Simulation time: 14 hr 32 min 44 sec)
Heartbeat CPU 2 instructions: 2030000041 cycles: 507517273 heartbeat IPC: 4 cumulative IPC: 4 (Simulation time: 14 hr 32 min 44 sec)
*** Reached end of trace: (2, "traces/ocean_8t/ocean2.champsimtrace")
Heartbeat CPU 3 instructions: 2040000109 cycles: 510014614 heartbeat IPC: 4 cumulative IPC: 4 (Simulation time: 14 hr 37 min 01 sec)
Heartbeat CPU 2 instructions: 2040000042 cycles: 510017296 heartbeat IPC: 4 cumulative IPC: 4 (Simulation time: 14 hr 37 min 01 sec)
*** Reached end of trace: (3, "traces/ocean_8t/ocean3.champsimtrace")
Heartbeat CPU 3 instructions: 2050000112 cycles: 512514631 heartbeat IPC: 4 cumulative IPC: 4 (Simulation time: 14 hr 41 min 22 sec)
Heartbeat CPU 2 instructions: 2050000042 cycles: 512517296 heartbeat IPC: 4 cumulative IPC: 4 (Simulation time: 14 hr 41 min 23 sec)
Heartbeat CPU 3 instructions: 2060000112 cycles: 515014631 heartbeat IPC: 4 cumulative IPC: 4 (Simulation time: 14 hr 45 min 41 sec)
Heartbeat CPU 2 instructions: 2060000042 cycles: 515017296 heartbeat IPC: 4 cumulative IPC: 4 (Simulation time: 14 hr 45 min 41 sec)
Heartbeat CPU 3 instructions: 2070000112 cycles: 517514631 heartbeat IPC: 4 cumulative IPC: 4 (Simulation time: 14 hr 49 min 54 sec)
Heartbeat CPU 2 instructions: 2070000042 cycles: 517517296 heartbeat IPC: 4 cumulative IPC: 4 (Simulation time: 14 hr 49 min 54 sec)
Heartbeat CPU 1 instructions: 370000040 cycles: 517852416 heartbeat IPC: 0.3893 cumulative IPC: 0.3022 (Simulation time: 14 hr 50 min 28 sec)
*** Reached end of trace: (2, "traces/ocean_8t/ocean2.champsimtrace")
Heartbeat CPU 3 instructions: 2080000112 cycles: 520014631 heartbeat IPC: 4 cumulative IPC: 4 (Simulation time: 14 hr 54 min 05 sec)
Heartbeat CPU 2 instructions: 2080000043 cycles: 520017319 heartbeat IPC: 4 cumulative IPC: 4 (Simulation time: 14 hr 54 min 05 sec)
Heartbeat CPU 0 instructions: 120000028 cycles: 520794060 heartbeat IPC: 0.1434 cumulative IPC: 0.169 (Simulation time: 14 hr 55 min 24 sec)
*** Reached end of trace: (3, "traces/ocean_8t/ocean3.champsimtrace")
Heartbeat CPU 3 instructions: 2090000115 cycles: 522514648 heartbeat IPC: 4 cumulative IPC: 4 (Simulation time: 14 hr 58 min 19 sec)
Heartbeat CPU 2 instructions: 2090000043 cycles: 522517319 heartbeat IPC: 4 cumulative IPC: 4 (Simulation time: 14 hr 58 min 20 sec)
Heartbeat CPU 3 instructions: 2100000115 cycles: 525014648 heartbeat IPC: 4 cumulative IPC: 4 (Simulation time: 15 hr 02 min 28 sec)
Heartbeat CPU 2 instructions: 2100000043 cycles: 525017319 heartbeat IPC: 4 cumulative IPC: 4 (Simulation time: 15 hr 02 min 29 sec)
Heartbeat CPU 3 instructions: 2110000115 cycles: 527514648 heartbeat IPC: 4 cumulative IPC: 4 (Simulation time: 15 hr 06 min 33 sec)
Heartbeat CPU 2 instructions: 2110000043 cycles: 527517319 heartbeat IPC: 4 cumulative IPC: 4 (Simulation time: 15 hr 06 min 33 sec)
Heartbeat CPU 3 instructions: 2120000115 cycles: 530014648 heartbeat IPC: 4 cumulative IPC: 4 (Simulation time: 15 hr 10 min 39 sec)
Heartbeat CPU 2 instructions: 2120000043 cycles: 530017319 heartbeat IPC: 4 cumulative IPC: 4 (Simulation time: 15 hr 10 min 39 sec)
*** Reached end of trace: (2, "traces/ocean_8t/ocean2.champsimtrace")
Heartbeat CPU 3 instructions: 2130000115 cycles: 532514648 heartbeat IPC: 4 cumulative IPC: 4 (Simulation time: 15 hr 14 min 38 sec)
Heartbeat CPU 2 instructions: 2130000044 cycles: 532517342 heartbeat IPC: 4 cumulative IPC: 4 (Simulation time: 15 hr 14 min 38 sec)
*** Reached end of trace: (3, "traces/ocean_8t/ocean3.champsimtrace")
Heartbeat CPU 3 instructions: 2140000118 cycles: 535014665 heartbeat IPC: 4 cumulative IPC: 4 (Simulation time: 15 hr 18 min 42 sec)
Heartbeat CPU 2 instructions: 2140000044 cycles: 535017342 heartbeat IPC: 4 cumulative IPC: 4 (Simulation time: 15 hr 18 min 42 sec)
Heartbeat CPU 3 instructions: 2150000118 cycles: 537514665 heartbeat IPC: 4 cumulative IPC: 4 (Simulation time: 15 hr 22 min 38 sec)
Heartbeat CPU 2 instructions: 2150000044 cycles: 537517342 heartbeat IPC: 4 cumulative IPC: 4 (Simulation time: 15 hr 22 min 39 sec)
Heartbeat CPU 3 instructions: 2160000118 cycles: 540014665 heartbeat IPC: 4 cumulative IPC: 4 (Simulation time: 15 hr 26 min 40 sec)
Heartbeat CPU 2 instructions: 2160000044 cycles: 540017342 heartbeat IPC: 4 cumulative IPC: 4 (Simulation time: 15 hr 26 min 41 sec)
*** Reached end of trace: (2, "traces/ocean_8t/ocean2.champsimtrace")
Heartbeat CPU 3 instructions: 2170000118 cycles: 542514665 heartbeat IPC: 4 cumulative IPC: 4 (Simulation time: 15 hr 30 min 42 sec)
Heartbeat CPU 2 instructions: 2170000045 cycles: 542517365 heartbeat IPC: 4 cumulative IPC: 4 (Simulation time: 15 hr 30 min 42 sec)
Heartbeat CPU 1 instructions: 380000040 cycles: 543536073 heartbeat IPC: 0.3894 cumulative IPC: 0.3073 (Simulation time: 15 hr 32 min 15 sec)
*** Reached end of trace: (3, "traces/ocean_8t/ocean3.champsimtrace")
Heartbeat CPU 3 instructions: 2180000121 cycles: 545014682 heartbeat IPC: 4 cumulative IPC: 4 (Simulation time: 15 hr 34 min 36 sec)
Heartbeat CPU 2 instructions: 2180000045 cycles: 545017365 heartbeat IPC: 4 cumulative IPC: 4 (Simulation time: 15 hr 34 min 36 sec)
Heartbeat CPU 3 instructions: 2190000121 cycles: 547514682 heartbeat IPC: 4 cumulative IPC: 4 (Simulation time: 15 hr 38 min 29 sec)
Heartbeat CPU 2 instructions: 2190000045 cycles: 547517365 heartbeat IPC: 4 cumulative IPC: 4 (Simulation time: 15 hr 38 min 30 sec)
Heartbeat CPU 3 instructions: 2200000121 cycles: 550014682 heartbeat IPC: 4 cumulative IPC: 4 (Simulation time: 15 hr 42 min 21 sec)
Heartbeat CPU 2 instructions: 2200000045 cycles: 550017365 heartbeat IPC: 4 cumulative IPC: 4 (Simulation time: 15 hr 42 min 21 sec)
Heartbeat CPU 3 instructions: 2210000121 cycles: 552514682 heartbeat IPC: 4 cumulative IPC: 4 (Simulation time: 15 hr 46 min 08 sec)
Heartbeat CPU 2 instructions: 2210000045 cycles: 552517365 heartbeat IPC: 4 cumulative IPC: 4 (Simulation time: 15 hr 46 min 08 sec)
*** Reached end of trace: (2, "traces/ocean_8t/ocean2.champsimtrace")
Heartbeat CPU 3 instructions: 2220000121 cycles: 555014682 heartbeat IPC: 4 cumulative IPC: 4 (Simulation time: 15 hr 49 min 57 sec)
Heartbeat CPU 2 instructions: 2220000046 cycles: 555017388 heartbeat IPC: 4 cumulative IPC: 4 (Simulation time: 15 hr 49 min 57 sec)
*** Reached end of trace: (3, "traces/ocean_8t/ocean3.champsimtrace")
Heartbeat CPU 3 instructions: 2230000124 cycles: 557514699 heartbeat IPC: 4 cumulative IPC: 4 (Simulation time: 15 hr 53 min 41 sec)
Heartbeat CPU 2 instructions: 2230000046 cycles: 557517388 heartbeat IPC: 4 cumulative IPC: 4 (Simulation time: 15 hr 53 min 41 sec)
Heartbeat CPU 3 instructions: 2240000124 cycles: 560014699 heartbeat IPC: 4 cumulative IPC: 4 (Simulation time: 15 hr 57 min 30 sec)
Heartbeat CPU 2 instructions: 2240000046 cycles: 560017388 heartbeat IPC: 4 cumulative IPC: 4 (Simulation time: 15 hr 57 min 30 sec)
Heartbeat CPU 3 instructions: 2250000124 cycles: 562514699 heartbeat IPC: 4 cumulative IPC: 4 (Simulation time: 16 hr 01 min 28 sec)
Heartbeat CPU 2 instructions: 2250000046 cycles: 562517388 heartbeat IPC: 4 cumulative IPC: 4 (Simulation time: 16 hr 01 min 28 sec)
*** Reached end of trace: (2, "traces/ocean_8t/ocean2.champsimtrace")
Heartbeat CPU 3 instructions: 2260000124 cycles: 565014699 heartbeat IPC: 4 cumulative IPC: 4 (Simulation time: 16 hr 05 min 29 sec)
Heartbeat CPU 2 instructions: 2260000047 cycles: 565017411 heartbeat IPC: 4 cumulative IPC: 4 (Simulation time: 16 hr 05 min 29 sec)
Heartbeat CPU 3 instructions: 2270000124 cycles: 567514699 heartbeat IPC: 4 cumulative IPC: 4 (Simulation time: 16 hr 09 min 26 sec)
Heartbeat CPU 2 instructions: 2270000047 cycles: 567517411 heartbeat IPC: 4 cumulative IPC: 4 (Simulation time: 16 hr 09 min 26 sec)
*** Reached end of trace: (3, "traces/ocean_8t/ocean3.champsimtrace")
Heartbeat CPU 3 instructions: 2280000127 cycles: 570014716 heartbeat IPC: 4 cumulative IPC: 4 (Simulation time: 16 hr 13 min 14 sec)
Heartbeat CPU 2 instructions: 2280000047 cycles: 570017411 heartbeat IPC: 4 cumulative IPC: 4 (Simulation time: 16 hr 13 min 14 sec)
Heartbeat CPU 3 instructions: 2290000127 cycles: 572514716 heartbeat IPC: 4 cumulative IPC: 4 (Simulation time: 16 hr 17 min 00 sec)
Heartbeat CPU 2 instructions: 2290000047 cycles: 572517411 heartbeat IPC: 4 cumulative IPC: 4 (Simulation time: 16 hr 17 min 01 sec)
Heartbeat CPU 3 instructions: 2300000127 cycles: 575014716 heartbeat IPC: 4 cumulative IPC: 4 (Simulation time: 16 hr 20 min 43 sec)
Heartbeat CPU 2 instructions: 2300000047 cycles: 575017411 heartbeat IPC: 4 cumulative IPC: 4 (Simulation time: 16 hr 20 min 43 sec)
*** Reached end of trace: (2, "traces/ocean_8t/ocean2.champsimtrace")
Heartbeat CPU 3 instructions: 2310000127 cycles: 577514716 heartbeat IPC: 4 cumulative IPC: 4 (Simulation time: 16 hr 24 min 28 sec)
Heartbeat CPU 2 instructions: 2310000048 cycles: 577517434 heartbeat IPC: 4 cumulative IPC: 4 (Simulation time: 16 hr 24 min 29 sec)
*** Reached end of trace: (3, "traces/ocean_8t/ocean3.champsimtrace")
Heartbeat CPU 3 instructions: 2320000130 cycles: 580014733 heartbeat IPC: 4 cumulative IPC: 4 (Simulation time: 16 hr 28 min 17 sec)
Heartbeat CPU 2 instructions: 2320000048 cycles: 580017434 heartbeat IPC: 4 cumulative IPC: 4 (Simulation time: 16 hr 28 min 17 sec)
Heartbeat CPU 3 instructions: 2330000130 cycles: 582514733 heartbeat IPC: 4 cumulative IPC: 4 (Simulation time: 16 hr 32 min 04 sec)
Heartbeat CPU 2 instructions: 2330000048 cycles: 582517434 heartbeat IPC: 4 cumulative IPC: 4 (Simulation time: 16 hr 32 min 04 sec)
Heartbeat CPU 1 instructions: 390000040 cycles: 583549466 heartbeat IPC: 0.2499 cumulative IPC: 0.3025 (Simulation time: 16 hr 33 min 45 sec)
Heartbeat CPU 3 instructions: 2340000130 cycles: 585014733 heartbeat IPC: 4 cumulative IPC: 4 (Simulation time: 16 hr 36 min 03 sec)
Heartbeat CPU 2 instructions: 2340000048 cycles: 585017434 heartbeat IPC: 4 cumulative IPC: 4 (Simulation time: 16 hr 36 min 03 sec)
Heartbeat CPU 0 instructions: 130000029 cycles: 585128355 heartbeat IPC: 0.1554 cumulative IPC: 0.1672 (Simulation time: 16 hr 36 min 13 sec)
*** Reached end of trace: (2, "traces/ocean_8t/ocean2.champsimtrace")
Heartbeat CPU 3 instructions: 2350000130 cycles: 587514733 heartbeat IPC: 4 cumulative IPC: 4 (Simulation time: 16 hr 40 min 03 sec)
Heartbeat CPU 2 instructions: 2350000049 cycles: 587517457 heartbeat IPC: 4 cumulative IPC: 4 (Simulation time: 16 hr 40 min 03 sec)
Heartbeat CPU 3 instructions: 2360000130 cycles: 590014733 heartbeat IPC: 4 cumulative IPC: 4 (Simulation time: 16 hr 44 min 01 sec)
Heartbeat CPU 2 instructions: 2360000049 cycles: 590017457 heartbeat IPC: 4 cumulative IPC: 4 (Simulation time: 16 hr 44 min 01 sec)
*** Reached end of trace: (3, "traces/ocean_8t/ocean3.champsimtrace")
Heartbeat CPU 3 instructions: 2370000133 cycles: 592514750 heartbeat IPC: 4 cumulative IPC: 4 (Simulation time: 16 hr 47 min 58 sec)
[...]
CPU 2 Branch Prediction Accuracy: -% MPKI: 0 Average ROB Occupancy at Mispredict: -
Branch type MPKI
BRANCH_DIRECT_JUMP: 0
BRANCH_INDIRECT: 0
BRANCH_CONDITIONAL: 0
BRANCH_DIRECT_CALL: 0
BRANCH_INDIRECT_CALL: 0
BRANCH_RETURN: 0


CPU 1 cumulative IPC: 0.3048 instructions: 100000002 cycles: 328053552
CPU 1 Branch Prediction Accuracy: -% MPKI: 0 Average ROB Occupancy at Mispredict: -
Branch type MPKI
BRANCH_DIRECT_JUMP: 0
BRANCH_INDIRECT: 0
BRANCH_CONDITIONAL: 0
BRANCH_DIRECT_CALL: 0
BRANCH_INDIRECT_CALL: 0
BRANCH_RETURN: 0


CPU 0 cumulative IPC: 0.1695 instructions: 100000000 cycles: 589923943
CPU 0 Branch Prediction Accuracy: -% MPKI: 0 Average ROB Occupancy at Mispredict: -
Branch type MPKI
BRANCH_DIRECT_JUMP: 0
BRANCH_INDIRECT: 0
BRANCH_CONDITIONAL: 0
BRANCH_DIRECT_CALL: 0
BRANCH_INDIRECT_CALL: 0
BRANCH_RETURN: 0

cpu3->cpu3_STLB TOTAL        ACCESS:        832 HIT:        832 MISS:          0 MSHR_MERGE:          0
cpu3->cpu3_STLB LOAD         ACCESS:        832 HIT:        832 MISS:          0 MSHR_MERGE:          0
cpu3->cpu3_STLB RFO          ACCESS:          0 HIT:          0 MISS:          0 MSHR_MERGE:          0
cpu3->cpu3_STLB PREFETCH     ACCESS:          0 HIT:          0 MISS:          0 MSHR_MERGE:          0
cpu3->cpu3_STLB WRITE        ACCESS:          0 HIT:          0 MISS:          0 MSHR_MERGE:          0
cpu3->cpu3_STLB TRANSLATION  ACCESS:          0 HIT:          0 MISS:          0 MSHR_MERGE:          0
cpu3->cpu3_STLB PREFETCH REQUESTED:          0 ISSUED:          0 USEFUL:          0 USELESS:          0
cpu3->cpu3_STLB AVERAGE MISS LATENCY: - cycles
cpu3_STLB COHERENCE INVALIDATIONS:          0
cpu3_STLB COHERENCE WRITE-HIT OTHER-SHARER EVENTS:          0
cpu3->cpu3_L2C TOTAL        ACCESS:      81334 HIT:      81334 MISS:          0 MSHR_MERGE:          0
cpu3->cpu3_L2C LOAD         ACCESS:      81334 HIT:      81334 MISS:          0 MSHR_MERGE:          0
cpu3->cpu3_L2C RFO          ACCESS:          0 HIT:          0 MISS:          0 MSHR_MERGE:          0
cpu3->cpu3_L2C PREFETCH     ACCESS:          0 HIT:          0 MISS:          0 MSHR_MERGE:          0
cpu3->cpu3_L2C WRITE        ACCESS:          0 HIT:          0 MISS:          0 MSHR_MERGE:          0
cpu3->cpu3_L2C TRANSLATION  ACCESS:          0 HIT:          0 MISS:          0 MSHR_MERGE:          0
cpu3->cpu3_L2C PREFETCH REQUESTED:          0 ISSUED:          0 USEFUL:          0 USELESS:          0
cpu3->cpu3_L2C AVERAGE MISS LATENCY: - cycles
cpu3_L2C COHERENCE INVALIDATIONS:          0
cpu3_L2C COHERENCE WRITE-HIT OTHER-SHARER EVENTS:          0
cpu3->cpu3_L1I TOTAL        ACCESS:  365819250 HIT:  365698111 MISS:     121139 MSHR_MERGE:      39805
cpu3->cpu3_L1I LOAD         ACCESS:  365819250 HIT:  365698111 MISS:     121139 MSHR_MERGE:      39805
cpu3->cpu3_L1I RFO          ACCESS:          0 HIT:          0 MISS:          0 MSHR_MERGE:          0
cpu3->cpu3_L1I PREFETCH     ACCESS:          0 HIT:          0 MISS:          0 MSHR_MERGE:          0
cpu3->cpu3_L1I WRITE        ACCESS:          0 HIT:          0 MISS:          0 MSHR_MERGE:          0
cpu3->cpu3_L1I TRANSLATION  ACCESS:          0 HIT:          0 MISS:          0 MSHR_MERGE:          0
cpu3->cpu3_L1I PREFETCH REQUESTED:          0 ISSUED:          0 USEFUL:          0 USELESS:          0
cpu3->cpu3_L1I AVERAGE MISS LATENCY: 7 cycles
cpu3_L1I COHERENCE INVALIDATIONS:          0
cpu3_L1I COHERENCE WRITE-HIT OTHER-SHARER EVENTS:          0
cpu3_L1D COHERENCE INVALIDATIONS:          0
cpu3_L1D COHERENCE WRITE-HIT OTHER-SHARER EVENTS:          0
cpu3->cpu3_ITLB TOTAL        ACCESS:  292817824 HIT:  292816212 MISS:       1612 MSHR_MERGE:        780
cpu3->cpu3_ITLB LOAD         ACCESS:  292817824 HIT:  292816212 MISS:       1612 MSHR_MERGE:        780
cpu3->cpu3_ITLB RFO          ACCESS:          0 HIT:          0 MISS:          0 MSHR_MERGE:          0
cpu3->cpu3_ITLB PREFETCH     ACCESS:          0 HIT:          0 MISS:          0 MSHR_MERGE:          0
cpu3->cpu3_ITLB WRITE        ACCESS:          0 HIT:          0 MISS:          0 MSHR_MERGE:          0
cpu3->cpu3_ITLB TRANSLATION  ACCESS:          0 HIT:          0 MISS:          0 MSHR_MERGE:          0
cpu3->cpu3_ITLB PREFETCH REQUESTED:          0 ISSUED:          0 USEFUL:          0 USELESS:          0
cpu3->cpu3_ITLB AVERAGE MISS LATENCY: 4 cycles
cpu3_ITLB COHERENCE INVALIDATIONS:          0
cpu3_ITLB COHERENCE WRITE-HIT OTHER-SHARER EVENTS:          0
cpu3_DTLB COHERENCE INVALIDATIONS:          0
cpu3_DTLB COHERENCE WRITE-HIT OTHER-SHARER EVENTS:          0
cpu2->cpu2_STLB TOTAL        ACCESS:        832 HIT:        832 MISS:          0 MSHR_MERGE:          0
cpu2->cpu2_STLB LOAD         ACCESS:        832 HIT:        832 MISS:          0 MSHR_MERGE:          0
cpu2->cpu2_STLB RFO          ACCESS:          0 HIT:          0 MISS:          0 MSHR_MERGE:          0
cpu2->cpu2_STLB PREFETCH     ACCESS:          0 HIT:          0 MISS:          0 MSHR_MERGE:          0
cpu2->cpu2_STLB WRITE        ACCESS:          0 HIT:          0 MISS:          0 MSHR_MERGE:          0
cpu2->cpu2_STLB TRANSLATION  ACCESS:          0 HIT:          0 MISS:          0 MSHR_MERGE:          0
cpu2->cpu2_STLB PREFETCH REQUESTED:          0 ISSUED:          0 USEFUL:          0 USELESS:          0
cpu2->cpu2_STLB AVERAGE MISS LATENCY: - cycles
cpu2_STLB COHERENCE INVALIDATIONS:          0
cpu2_STLB COHERENCE WRITE-HIT OTHER-SHARER EVENTS:          0
cpu2->cpu2_L2C TOTAL        ACCESS:      86301 HIT:      86301 MISS:          0 MSHR_MERGE:          0
cpu2->cpu2_L2C LOAD         ACCESS:      86301 HIT:      86301 MISS:          0 MSHR_MERGE:          0
cpu2->cpu2_L2C RFO          ACCESS:          0 HIT:          0 MISS:          0 MSHR_MERGE:          0
cpu2->cpu2_L2C PREFETCH     ACCESS:          0 HIT:          0 MISS:          0 MSHR_MERGE:          0
cpu2->cpu2_L2C WRITE        ACCESS:          0 HIT:          0 MISS:          0 MSHR_MERGE:          0
cpu2->cpu2_L2C TRANSLATION  ACCESS:          0 HIT:          0 MISS:          0 MSHR_MERGE:          0
cpu2->cpu2_L2C PREFETCH REQUESTED:          0 ISSUED:          0 USEFUL:          0 USELESS:          0
cpu2->cpu2_L2C AVERAGE MISS LATENCY: - cycles
cpu2_L2C COHERENCE INVALIDATIONS:          0
cpu2_L2C COHERENCE WRITE-HIT OTHER-SHARER EVENTS:          0
cpu2->cpu2_L1I TOTAL        ACCESS:  370793428 HIT:  370662842 MISS:     130586 MSHR_MERGE:      44285
cpu2->cpu2_L1I LOAD         ACCESS:  370793428 HIT:  370662842 MISS:     130586 MSHR_MERGE:      44285
cpu2->cpu2_L1I RFO          ACCESS:          0 HIT:          0 MISS:          0 MSHR_MERGE:          0
cpu2->cpu2_L1I PREFETCH     ACCESS:          0 HIT:          0 MISS:          0 MSHR_MERGE:          0
cpu2->cpu2_L1I WRITE        ACCESS:          0 HIT:          0 MISS:          0 MSHR_MERGE:          0
cpu2->cpu2_L1I TRANSLATION  ACCESS:          0 HIT:          0 MISS:          0 MSHR_MERGE:          0
cpu2->cpu2_L1I PREFETCH REQUESTED:          0 ISSUED:          0 USEFUL:          0 USELESS:          0
cpu2->cpu2_L1I AVERAGE MISS LATENCY: 7 cycles
cpu2_L1I COHERENCE INVALIDATIONS:          0
cpu2_L1I COHERENCE WRITE-HIT OTHER-SHARER EVENTS:          0
cpu2_L1D COHERENCE INVALIDATIONS:          0
cpu2_L1D COHERENCE WRITE-HIT OTHER-SHARER EVENTS:          0
cpu2->cpu2_ITLB TOTAL        ACCESS:  292972148 HIT:  292970640 MISS:       1508 MSHR_MERGE:        676
cpu2->cpu2_ITLB LOAD         ACCESS:  292972148 HIT:  292970640 MISS:       1508 MSHR_MERGE:        676
cpu2->cpu2_ITLB RFO          ACCESS:          0 HIT:          0 MISS:          0 MSHR_MERGE:          0
cpu2->cpu2_ITLB PREFETCH     ACCESS:          0 HIT:          0 MISS:          0 MSHR_MERGE:          0
cpu2->cpu2_ITLB WRITE        ACCESS:          0 HIT:          0 MISS:          0 MSHR_MERGE:          0
cpu2->cpu2_ITLB TRANSLATION  ACCESS:          0 HIT:          0 MISS:          0 MSHR_MERGE:          0
cpu2->cpu2_ITLB PREFETCH REQUESTED:          0 ISSUED:          0 USEFUL:          0 USELESS:          0
cpu2->cpu2_ITLB AVERAGE MISS LATENCY: 4 cycles
cpu2_ITLB COHERENCE INVALIDATIONS:          0
cpu2_ITLB COHERENCE WRITE-HIT OTHER-SHARER EVENTS:          0
cpu2_DTLB COHERENCE INVALIDATIONS:          0
cpu2_DTLB COHERENCE WRITE-HIT OTHER-SHARER EVENTS:          0
cpu1->cpu1_STLB TOTAL        ACCESS:     934384 HIT:     903038 MISS:      31346 MSHR_MERGE:          0
cpu1->cpu1_STLB LOAD         ACCESS:     934384 HIT:     903038 MISS:      31346 MSHR_MERGE:          0
cpu1->cpu1_STLB RFO          ACCESS:          0 HIT:          0 MISS:          0 MSHR_MERGE:          0
cpu1->cpu1_STLB PREFETCH     ACCESS:          0 HIT:          0 MISS:          0 MSHR_MERGE:          0
cpu1->cpu1_STLB WRITE        ACCESS:          0 HIT:          0 MISS:          0 MSHR_MERGE:          0
cpu1->cpu1_STLB TRANSLATION  ACCESS:          0 HIT:          0 MISS:          0 MSHR_MERGE:          0
cpu1->cpu1_STLB PREFETCH REQUESTED:          0 ISSUED:          0 USEFUL:          0 USELESS:          0
cpu1->cpu1_STLB AVERAGE MISS LATENCY: 497.1 cycles
cpu1_STLB COHERENCE INVALIDATIONS:          0
cpu1_STLB COHERENCE WRITE-HIT OTHER-SHARER EVENTS:          0
cpu1->cpu1_L2C TOTAL        ACCESS:   13258062 HIT:    5436023 MISS:    7822039 MSHR_MERGE:          0
cpu1->cpu1_L2C LOAD         ACCESS:   13209404 HIT:    5436023 MISS:    7773381 MSHR_MERGE:          0
cpu1->cpu1_L2C RFO          ACCESS:          0 HIT:          0 MISS:          0 MSHR_MERGE:          0
cpu1->cpu1_L2C PREFETCH     ACCESS:          0 HIT:          0 MISS:          0 MSHR_MERGE:          0
cpu1->cpu1_L2C WRITE        ACCESS:          0 HIT:          0 MISS:          0 MSHR_MERGE:          0
cpu1->cpu1_L2C TRANSLATION  ACCESS:      48658 HIT:          0 MISS:      48658 MSHR_MERGE:          0
cpu1->cpu1_L2C PREFETCH REQUESTED:          0 ISSUED:          0 USEFUL:          0 USELESS:          0
cpu1->cpu1_L2C AVERAGE MISS LATENCY: 209.3 cycles
cpu1_L2C COHERENCE INVALIDATIONS:          0
cpu1_L2C COHERENCE WRITE-HIT OTHER-SHARER EVENTS:          0
cpu1->cpu1_L1I TOTAL        ACCESS:   48810671 HIT:   33807042 MISS:   15003629 MSHR_MERGE:    1794226
cpu1->cpu1_L1I LOAD         ACCESS:   48810671 HIT:   33807042 MISS:   15003629 MSHR_MERGE:    1794226
cpu1->cpu1_L1I RFO          ACCESS:          0 HIT:          0 MISS:          0 MSHR_MERGE:          0
cpu1->cpu1_L1I PREFETCH     ACCESS:          0 HIT:          0 MISS:          0 MSHR_MERGE:          0
cpu1->cpu1_L1I WRITE        ACCESS:          0 HIT:          0 MISS:          0 MSHR_MERGE:          0
cpu1->cpu1_L1I TRANSLATION  ACCESS:          0 HIT:          0 MISS:          0 MSHR_MERGE:          0
cpu1->cpu1_L1I PREFETCH REQUESTED:          0 ISSUED:          0 USEFUL:          0 USELESS:          0
cpu1->cpu1_L1I AVERAGE MISS LATENCY: 130.5 cycles
cpu1_L1I COHERENCE INVALIDATIONS:          0
cpu1_L1I COHERENCE WRITE-HIT OTHER-SHARER EVENTS:          0
cpu1->cpu1_L1D TOTAL        ACCESS:      62704 HIT:      14046 MISS:      48658 MSHR_MERGE:          0
cpu1->cpu1_L1D LOAD         ACCESS:          0 HIT:          0 MISS:          0 MSHR_MERGE:          0
cpu1->cpu1_L1D RFO          ACCESS:          0 HIT:          0 MISS:          0 MSHR_MERGE:          0
cpu1->cpu1_L1D PREFETCH     ACCESS:          0 HIT:          0 MISS:          0 MSHR_MERGE:          0
cpu1->cpu1_L1D WRITE        ACCESS:          0 HIT:          0 MISS:          0 MSHR_MERGE:          0
cpu1->cpu1_L1D TRANSLATION  ACCESS:      62704 HIT:      14046 MISS:      48658 MSHR_MERGE:          0
cpu1->cpu1_L1D PREFETCH REQUESTED:          0 ISSUED:          0 USEFUL:          0 USELESS:          0
cpu1->cpu1_L1D AVERAGE MISS LATENCY: 312.8 cycles
cpu1_L1D COHERENCE INVALIDATIONS:          0
cpu1_L1D COHERENCE WRITE-HIT OTHER-SHARER EVENTS:          0
cpu1->cpu1_ITLB TOTAL        ACCESS:   47960357 HIT:   46985860 MISS:     974497 MSHR_MERGE:      40113
cpu1->cpu1_ITLB LOAD         ACCESS:   47960357 HIT:   46985860 MISS:     974497 MSHR_MERGE:      40113
cpu1->cpu1_ITLB RFO          ACCESS:          0 HIT:          0 MISS:          0 MSHR_MERGE:          0
cpu1->cpu1_ITLB PREFETCH     ACCESS:          0 HIT:          0 MISS:          0 MSHR_MERGE:          0
cpu1->cpu1_ITLB WRITE        ACCESS:          0 HIT:          0 MISS:          0 MSHR_MERGE:          0
cpu1->cpu1_ITLB TRANSLATION  ACCESS:          0 HIT:          0 MISS:          0 MSHR_MERGE:          0
cpu1->cpu1_ITLB PREFETCH REQUESTED:          0 ISSUED:          0 USEFUL:          0 USELESS:          0
cpu1->cpu1_ITLB AVERAGE MISS LATENCY: 20.71 cycles
cpu1_ITLB COHERENCE INVALIDATIONS:          0
cpu1_ITLB COHERENCE WRITE-HIT OTHER-SHARER EVENTS:          0
cpu1_DTLB COHERENCE INVALIDATIONS:          0
cpu1_DTLB COHERENCE WRITE-HIT OTHER-SHARER EVENTS:          0
cpu0->cpu0_STLB TOTAL        ACCESS:    4692319 HIT:    4544763 MISS:     147556 MSHR_MERGE:          0
cpu0->cpu0_STLB LOAD         ACCESS:    4692319 HIT:    4544763 MISS:     147556 MSHR_MERGE:          0
cpu0->cpu0_STLB RFO          ACCESS:          0 HIT:          0 MISS:          0 MSHR_MERGE:          0
cpu0->cpu0_STLB PREFETCH     ACCESS:          0 HIT:          0 MISS:          0 MSHR_MERGE:          0
cpu0->cpu0_STLB WRITE        ACCESS:          0 HIT:          0 MISS:          0 MSHR_MERGE:          0
cpu0->cpu0_STLB TRANSLATION  ACCESS:          0 HIT:          0 MISS:          0 MSHR_MERGE:          0
cpu0->cpu0_STLB PREFETCH REQUESTED:          0 ISSUED:          0 USEFUL:          0 USELESS:          0
cpu0->cpu0_STLB AVERAGE MISS LATENCY: 617.4 cycles
cpu0_STLB COHERENCE INVALIDATIONS:          0
cpu0_STLB COHERENCE WRITE-HIT OTHER-SHARER EVENTS:          0
cpu0->cpu0_L2C TOTAL        ACCESS:   32532017 HIT:   14817519 MISS:   17714498 MSHR_MERGE:          0
cpu0->cpu0_L2C LOAD         ACCESS:   21237994 HIT:    6703821 MISS:   14534173 MSHR_MERGE:          0
cpu0->cpu0_L2C RFO          ACCESS:    3443843 HIT:     496460 MISS:    2947383 MSHR_MERGE:          0
cpu0->cpu0_L2C PREFETCH     ACCESS:          0 HIT:          0 MISS:          0 MSHR_MERGE:          0
cpu0->cpu0_L2C WRITE        ACCESS:    7578050 HIT:    7577590 MISS:        460 MSHR_MERGE:          0
cpu0->cpu0_L2C TRANSLATION  ACCESS:     272130 HIT:      39648 MISS:     232482 MSHR_MERGE:          0
cpu0->cpu0_L2C PREFETCH REQUESTED:          0 ISSUED:          0 USEFUL:          0 USELESS:          0
cpu0->cpu0_L2C AVERAGE MISS LATENCY: 188.8 cycles
cpu0_L2C COHERENCE INVALIDATIONS:          0
cpu0_L2C COHERENCE WRITE-HIT OTHER-SHARER EVENTS:          0
cpu0->cpu0_L1I TOTAL        ACCESS:   30718344 HIT:   30706610 MISS:      11734 MSHR_MERGE:       5507
cpu0->cpu0_L1I LOAD         ACCESS:   30718344 HIT:   30706610 MISS:      11734 MSHR_MERGE:       5507
cpu0->cpu0_L1I RFO          ACCESS:          0 HIT:          0 MISS:          0 MSHR_MERGE:          0
cpu0->cpu0_L1I PREFETCH     ACCESS:          0 HIT:          0 MISS:          0 MSHR_MERGE:          0
cpu0->cpu0_L1I WRITE        ACCESS:          0 HIT:          0 MISS:          0 MSHR_MERGE:          0
cpu0->cpu0_L1I TRANSLATION  ACCESS:          0 HIT:          0 MISS:          0 MSHR_MERGE:          0
cpu0->cpu0_L1I PREFETCH REQUESTED:          0 ISSUED:          0 USEFUL:          0 USELESS:          0
cpu0->cpu0_L1I AVERAGE MISS LATENCY: 273.4 cycles
cpu0_L1I COHERENCE INVALIDATIONS:          0
cpu0_L1I COHERENCE WRITE-HIT OTHER-SHARER EVENTS:          0
cpu0->cpu0_L1D TOTAL        ACCESS:  103595527 HIT:   74998170 MISS:   28597357 MSHR_MERGE:    3647083
cpu0->cpu0_L1D LOAD         ACCESS:   44948528 HIT:   22737833 MISS:   22210695 MSHR_MERGE:     978383
cpu0->cpu0_L1D RFO          ACCESS:          0 HIT:          0 MISS:          0 MSHR_MERGE:          0
cpu0->cpu0_L1D PREFETCH     ACCESS:          0 HIT:          0 MISS:          0 MSHR_MERGE:          0
cpu0->cpu0_L1D WRITE        ACCESS:   58346716 HIT:   52237932 MISS:    6108784 MSHR_MERGE:    2662952
cpu0->cpu0_L1D TRANSLATION  ACCESS:     300283 HIT:      22405 MISS:     277878 MSHR_MERGE:       5748
cpu0->cpu0_L1D PREFETCH REQUESTED:          0 ISSUED:          0 USEFUL:          0 USELESS:          0
cpu0->cpu0_L1D AVERAGE MISS LATENCY: 141.9 cycles
cpu0_L1D COHERENCE INVALIDATIONS:          0
cpu0_L1D COHERENCE WRITE-HIT OTHER-SHARER EVENTS:          0
cpu0->cpu0_ITLB TOTAL        ACCESS:   28552208 HIT:   28551183 MISS:       1025 MSHR_MERGE:        676
cpu0->cpu0_ITLB LOAD         ACCESS:   28552208 HIT:   28551183 MISS:       1025 MSHR_MERGE:        676
cpu0->cpu0_ITLB RFO          ACCESS:          0 HIT:          0 MISS:          0 MSHR_MERGE:          0
cpu0->cpu0_ITLB PREFETCH     ACCESS:          0 HIT:          0 MISS:          0 MSHR_MERGE:          0
cpu0->cpu0_ITLB WRITE        ACCESS:          0 HIT:          0 MISS:          0 MSHR_MERGE:          0
cpu0->cpu0_ITLB TRANSLATION  ACCESS:          0 HIT:          0 MISS:          0 MSHR_MERGE:          0
cpu0->cpu0_ITLB PREFETCH REQUESTED:          0 ISSUED:          0 USEFUL:          0 USELESS:          0
cpu0->cpu0_ITLB AVERAGE MISS LATENCY: 494.3 cycles
cpu0_ITLB COHERENCE INVALIDATIONS:          0
cpu0_ITLB COHERENCE WRITE-HIT OTHER-SHARER EVENTS:          0
cpu0->cpu0_DTLB TOTAL        ACCESS:   99993408 HIT:   95097773 MISS:    4895635 MSHR_MERGE:     203665
cpu0->cpu0_DTLB LOAD         ACCESS:   99993408 HIT:   95097773 MISS:    4895635 MSHR_MERGE:     203665
cpu0->cpu0_DTLB RFO          ACCESS:          0 HIT:          0 MISS:          0 MSHR_MERGE:          0
cpu0->cpu0_DTLB PREFETCH     ACCESS:          0 HIT:          0 MISS:          0 MSHR_MERGE:          0
cpu0->cpu0_DTLB WRITE        ACCESS:          0 HIT:          0 MISS:          0 MSHR_MERGE:          0
cpu0->cpu0_DTLB TRANSLATION  ACCESS:          0 HIT:          0 MISS:          0 MSHR_MERGE:          0
cpu0->cpu0_DTLB PREFETCH REQUESTED:          0 ISSUED:          0 USEFUL:          0 USELESS:          0
cpu0->cpu0_DTLB AVERAGE MISS LATENCY: 23.41 cycles
cpu0_DTLB COHERENCE INVALIDATIONS:          0
cpu0_DTLB COHERENCE WRITE-HIT OTHER-SHARER EVENTS:          0
cpu0->LLC TOTAL        ACCESS:   24180883 HIT:   10356542 MISS:   13824341 MSHR_MERGE:        239
cpu0->LLC LOAD         ACCESS:   14534154 HIT:    6654823 MISS:    7879331 MSHR_MERGE:        174
cpu0->LLC RFO          ACCESS:    2947383 HIT:     723900 MISS:    2223483 MSHR_MERGE:         65
cpu0->LLC PREFETCH     ACCESS:          0 HIT:          0 MISS:          0 MSHR_MERGE:          0
cpu0->LLC WRITE        ACCESS:    6466864 HIT:    2973197 MISS:    3493667 MSHR_MERGE:          0
cpu0->LLC TRANSLATION  ACCESS:     232482 HIT:       4622 MISS:     227860 MSHR_MERGE:          0
cpu0->LLC PREFETCH REQUESTED:          0 ISSUED:          0 USEFUL:          0 USELESS:          0
cpu0->LLC AVERAGE MISS LATENCY: 333.7 cycles
cpu1->LLC TOTAL        ACCESS:    7822039 HIT:    2699055 MISS:    5122984 MSHR_MERGE:        202
cpu1->LLC LOAD         ACCESS:    7773381 HIT:    2698867 MISS:    5074514 MSHR_MERGE:        202
cpu1->LLC RFO          ACCESS:          0 HIT:          0 MISS:          0 MSHR_MERGE:          0
cpu1->LLC PREFETCH     ACCESS:          0 HIT:          0 MISS:          0 MSHR_MERGE:          0
cpu1->LLC WRITE        ACCESS:          0 HIT:          0 MISS:          0 MSHR_MERGE:          0
cpu1->LLC TRANSLATION  ACCESS:      48658 HIT:        188 MISS:      48470 MSHR_MERGE:          0
cpu1->LLC PREFETCH REQUESTED:          0 ISSUED:          0 USEFUL:          0 USELESS:          0
cpu1->LLC AVERAGE MISS LATENCY: 900.6 cycles
LLC COHERENCE INVALIDATIONS:     791673
LLC COHERENCE WRITE-HIT OTHER-SHARER EVENTS:     791673

DRAM Statistics

Channel 0 RQ ROW_BUFFER_HIT:     299162
  ROW_BUFFER_MISS:   15111353
  AVG DBUS CONGESTED CYCLE: 6.391
Channel 0 WQ ROW_BUFFER_HIT:     352154
  ROW_BUFFER_MISS:    3323685
  FULL:          0
Channel 0 REFRESHES ISSUED:      49160

VMEM ALIASED FILLS (cross-CPU shared-page hits): 90979
