[VMEM] WARNING: physical memory size is smaller than virtual memory size.

*** ChampSim Multicore Out-of-Order Simulator ***
Warmup Instructions: 50000000
Simulation Instructions: 100000000
Number of CPUs: 4
Page size: 4096

Off-chip DRAM Size: 16 GiB Channels: 1 Width: 64-bit Data Rate: 3205 MT/s
Heartbeat CPU 3 instructions: 10000003 cycles: 2511786 heartbeat IPC: 3.981 cumulative IPC: 3.981 (Simulation time: 00 hr 05 min 00 sec)
Heartbeat CPU 2 instructions: 10000003 cycles: 2512822 heartbeat IPC: 3.98 cumulative IPC: 3.98 (Simulation time: 00 hr 05 min 00 sec)
Heartbeat CPU 1 instructions: 10000001 cycles: 4690888 heartbeat IPC: 2.132 cumulative IPC: 2.132 (Simulation time: 00 hr 09 min 16 sec)
Heartbeat CPU 3 instructions: 20000004 cycles: 5012004 heartbeat IPC: 4 cumulative IPC: 3.99 (Simulation time: 00 hr 09 min 54 sec)
Heartbeat CPU 2 instructions: 20000003 cycles: 5013662 heartbeat IPC: 3.999 cumulative IPC: 3.989 (Simulation time: 00 hr 09 min 54 sec)
Heartbeat CPU 3 instructions: 30000004 cycles: 7512004 heartbeat IPC: 4 cumulative IPC: 3.994 (Simulation time: 00 hr 14 min 46 sec)
Heartbeat CPU 2 instructions: 30000003 cycles: 7513662 heartbeat IPC: 4 cumulative IPC: 3.993 (Simulation time: 00 hr 14 min 46 sec)
Heartbeat CPU 1 instructions: 20000001 cycles: 9262952 heartbeat IPC: 2.187 cumulative IPC: 2.159 (Simulation time: 00 hr 18 min 11 sec)
Heartbeat CPU 3 instructions: 40000004 cycles: 10012004 heartbeat IPC: 4 cumulative IPC: 3.995 (Simulation time: 00 hr 19 min 35 sec)
Heartbeat CPU 2 instructions: 40000003 cycles: 10013662 heartbeat IPC: 4 cumulative IPC: 3.995 (Simulation time: 00 hr 19 min 36 sec)
*** Reached end of trace: (2, "traces/ocean_8t/ocean2.champsimtrace")
*** Reached end of trace: (3, "traces/ocean_8t/ocean3.champsimtrace")
Warmup finished CPU 3 instructions: 50000000 cycles: 12514007 cumulative IPC: 3.996 (Simulation time: 00 hr 24 min 35 sec)
Heartbeat CPU 3 instructions: 50000004 cycles: 12514008 heartbeat IPC: 3.997 cumulative IPC: 3.996 (Simulation time: 00 hr 24 min 35 sec)
Warmup finished CPU 2 instructions: 50000002 cycles: 12516467 cumulative IPC: 3.995 (Simulation time: 00 hr 24 min 36 sec)
Heartbeat CPU 2 instructions: 50000006 cycles: 12516468 heartbeat IPC: 3.996 cumulative IPC: 3.995 (Simulation time: 00 hr 24 min 36 sec)
Heartbeat CPU 1 instructions: 30000002 cycles: 14611050 heartbeat IPC: 1.87 cumulative IPC: 2.053 (Simulation time: 00 hr 28 min 50 sec)
Heartbeat CPU 3 instructions: 60000004 cycles: 15014008 heartbeat IPC: 4 cumulative IPC: 3.996 (Simulation time: 00 hr 29 min 38 sec)
Heartbeat CPU 2 instructions: 60000006 cycles: 15016468 heartbeat IPC: 4 cumulative IPC: 3.996 (Simulation time: 00 hr 29 min 38 sec)
Heartbeat CPU 3 instructions: 70000004 cycles: 17514008 heartbeat IPC: 4 cumulative IPC: 3.997 (Simulation time: 00 hr 34 min 38 sec)
Heartbeat CPU 2 instructions: 70000006 cycles: 17516468 heartbeat IPC: 4 cumulative IPC: 3.996 (Simulation time: 00 hr 34 min 38 sec)
Heartbeat CPU 1 instructions: 40000003 cycles: 18858093 heartbeat IPC: 2.355 cumulative IPC: 2.121 (Simulation time: 00 hr 37 min 20 sec)
Heartbeat CPU 3 instructions: 80000004 cycles: 20014008 heartbeat IPC: 4 cumulative IPC: 3.997 (Simulation time: 00 hr 39 min 41 sec)
Heartbeat CPU 2 instructions: 80000006 cycles: 20016468 heartbeat IPC: 4 cumulative IPC: 3.997 (Simulation time: 00 hr 39 min 41 sec)
*** Reached end of trace: (1, "traces/ocean_8t/ocean1.champsimtrace")
Heartbeat CPU 0 instructions: 10000000 cycles: 20881373 heartbeat IPC: 0.4789 cumulative IPC: 0.4789 (Simulation time: 00 hr 41 min 27 sec)
Heartbeat CPU 3 instructions: 90000004 cycles: 22514008 heartbeat IPC: 4 cumulative IPC: 3.998 (Simulation time: 00 hr 44 min 44 sec)
Heartbeat CPU 2 instructions: 90000006 cycles: 22516468 heartbeat IPC: 4 cumulative IPC: 3.997 (Simulation time: 00 hr 44 min 44 sec)
*** Reached end of trace: (2, "traces/ocean_8t/ocean2.champsimtrace")
*** Reached end of trace: (3, "traces/ocean_8t/ocean3.champsimtrace")
Warmup finished CPU 1 instructions: 50000000 cycles: 22749453 cumulative IPC: 2.198 (Simulation time: 00 hr 45 min 13 sec)
Heartbeat CPU 1 instructions: 50000004 cycles: 22749454 heartbeat IPC: 2.57 cumulative IPC: 2.198 (Simulation time: 00 hr 45 min 13 sec)
Heartbeat CPU 3 instructions: 100000004 cycles: 25014008 heartbeat IPC: 4 cumulative IPC: 3.998 (Simulation time: 00 hr 49 min 43 sec)
Heartbeat CPU 2 instructions: 100000006 cycles: 25016468 heartbeat IPC: 4 cumulative IPC: 3.997 (Simulation time: 00 hr 49 min 44 sec)
Heartbeat CPU 1 instructions: 60000005 cycles: 26856209 heartbeat IPC: 2.435 cumulative IPC: 2.234 (Simulation time: 00 hr 53 min 29 sec)
Heartbeat CPU 3 instructions: 110000004 cycles: 27514008 heartbeat IPC: 4 cumulative IPC: 3.998 (Simulation time: 00 hr 54 min 48 sec)
Heartbeat CPU 2 instructions: 110000006 cycles: 27516468 heartbeat IPC: 4 cumulative IPC: 3.998 (Simulation time: 00 hr 54 min 49 sec)
Heartbeat CPU 3 instructions: 120000004 cycles: 30014008 heartbeat IPC: 4 cumulative IPC: 3.998 (Simulation time: 00 hr 59 min 48 sec)
Heartbeat CPU 2 instructions: 120000006 cycles: 30016468 heartbeat IPC: 4 cumulative IPC: 3.998 (Simulation time: 00 hr 59 min 49 sec)
Heartbeat CPU 1 instructions: 70000005 cycles: 31026925 heartbeat IPC: 2.398 cumulative IPC: 2.256 (Simulation time: 01 hr 01 min 52 sec)
Heartbeat CPU 3 instructions: 130000004 cycles: 32514008 heartbeat IPC: 4 cumulative IPC: 3.998 (Simulation time: 01 hr 04 min 49 sec)
Heartbeat CPU 2 instructions: 130000006 cycles: 32516468 heartbeat IPC: 4 cumulative IPC: 3.998 (Simulation time: 01 hr 04 min 49 sec)
*** Reached end of trace: (2, "traces/ocean_8t/ocean2.champsimtrace")
*** Reached end of trace: (3, "traces/ocean_8t/ocean3.champsimtrace")
Heartbeat CPU 3 instructions: 140000004 cycles: 35014008 heartbeat IPC: 4 cumulative IPC: 3.998 (Simulation time: 01 hr 09 min 43 sec)
Heartbeat CPU 2 instructions: 140000006 cycles: 35016468 heartbeat IPC: 4 cumulative IPC: 3.998 (Simulation time: 01 hr 09 min 44 sec)
Heartbeat CPU 1 instructions: 80000005 cycles: 36586985 heartbeat IPC: 1.799 cumulative IPC: 2.187 (Simulation time: 01 hr 12 min 50 sec)
Heartbeat CPU 3 instructions: 150000004 cycles: 37514008 heartbeat IPC: 4 cumulative IPC: 3.999 (Simulation time: 01 hr 14 min 39 sec)
Heartbeat CPU 2 instructions: 150000006 cycles: 37516468 heartbeat IPC: 4 cumulative IPC: 3.998 (Simulation time: 01 hr 14 min 39 sec)
Heartbeat CPU 3 instructions: 160000004 cycles: 40014008 heartbeat IPC: 4 cumulative IPC: 3.999 (Simulation time: 01 hr 19 min 24 sec)
Heartbeat CPU 2 instructions: 160000006 cycles: 40016468 heartbeat IPC: 4 cumulative IPC: 3.998 (Simulation time: 01 hr 19 min 25 sec)
Heartbeat CPU 1 instructions: 90000008 cycles: 40031670 heartbeat IPC: 2.903 cumulative IPC: 2.248 (Simulation time: 01 hr 19 min 26 sec)
*** Reached end of trace: (1, "traces/ocean_8t/ocean1.champsimtrace")
Heartbeat CPU 0 instructions: 20000001 cycles: 42192038 heartbeat IPC: 0.4692 cumulative IPC: 0.474 (Simulation time: 01 hr 23 min 49 sec)
Heartbeat CPU 3 instructions: 170000004 cycles: 42514008 heartbeat IPC: 4 cumulative IPC: 3.999 (Simulation time: 01 hr 24 min 27 sec)
Heartbeat CPU 2 instructions: 170000006 cycles: 42516468 heartbeat IPC: 4 cumulative IPC: 3.998 (Simulation time: 01 hr 24 min 27 sec)
Heartbeat CPU 1 instructions: 100000009 cycles: 44134315 heartbeat IPC: 2.437 cumulative IPC: 2.266 (Simulation time: 01 hr 27 min 38 sec)
Heartbeat CPU 3 instructions: 180000004 cycles: 45014008 heartbeat IPC: 4 cumulative IPC: 3.999 (Simulation time: 01 hr 29 min 26 sec)
Heartbeat CPU 2 instructions: 180000006 cycles: 45016468 heartbeat IPC: 4 cumulative IPC: 3.999 (Simulation time: 01 hr 29 min 26 sec)
*** Reached end of trace: (2, "traces/ocean_8t/ocean2.champsimtrace")
*** Reached end of trace: (3, "traces/ocean_8t/ocean3.champsimtrace")
Heartbeat CPU 3 instructions: 190000004 cycles: 47514008 heartbeat IPC: 4 cumulative IPC: 3.999 (Simulation time: 01 hr 34 min 22 sec)
Heartbeat CPU 2 instructions: 190000006 cycles: 47516468 heartbeat IPC: 4 cumulative IPC: 3.999 (Simulation time: 01 hr 34 min 22 sec)
Heartbeat CPU 1 instructions: 110000010 cycles: 48236697 heartbeat IPC: 2.438 cumulative IPC: 2.28 (Simulation time: 01 hr 35 min 46 sec)
Heartbeat CPU 3 instructions: 200000004 cycles: 50014008 heartbeat IPC: 4 cumulative IPC: 3.999 (Simulation time: 01 hr 39 min 23 sec)
Heartbeat CPU 2 instructions: 200000006 cycles: 50016468 heartbeat IPC: 4 cumulative IPC: 3.999 (Simulation time: 01 hr 39 min 23 sec)
Heartbeat CPU 3 instructions: 210000004 cycles: 52514008 heartbeat IPC: 4 cumulative IPC: 3.999 (Simulation time: 01 hr 44 min 30 sec)
Heartbeat CPU 2 instructions: 210000006 cycles: 52516468 heartbeat IPC: 4 cumulative IPC: 3.999 (Simulation time: 01 hr 44 min 31 sec)
Heartbeat CPU 1 instructions: 120000011 cycles: 53172092 heartbeat IPC: 2.026 cumulative IPC: 2.257 (Simulation time: 01 hr 45 min 47 sec)
Heartbeat CPU 3 instructions: 220000004 cycles: 55014008 heartbeat IPC: 4 cumulative IPC: 3.999 (Simulation time: 01 hr 49 min 17 sec)
Heartbeat CPU 2 instructions: 220000006 cycles: 55016468 heartbeat IPC: 4 cumulative IPC: 3.999 (Simulation time: 01 hr 49 min 17 sec)
*** Reached end of trace: (2, "traces/ocean_8t/ocean2.champsimtrace")
*** Reached end of trace: (3, "traces/ocean_8t/ocean3.champsimtrace")
Heartbeat CPU 3 instructions: 230000004 cycles: 57514008 heartbeat IPC: 4 cumulative IPC: 3.999 (Simulation time: 01 hr 54 min 14 sec)
Heartbeat CPU 2 instructions: 230000006 cycles: 57516468 heartbeat IPC: 4 cumulative IPC: 3.999 (Simulation time: 01 hr 54 min 15 sec)
Heartbeat CPU 1 instructions: 130000011 cycles: 57663000 heartbeat IPC: 2.227 cumulative IPC: 2.254 (Simulation time: 01 hr 54 min 32 sec)
*** Reached end of trace: (1, "traces/ocean_8t/ocean1.champsimtrace")
Heartbeat CPU 3 instructions: 240000004 cycles: 60014008 heartbeat IPC: 4 cumulative IPC: 3.999 (Simulation time: 01 hr 59 min 00 sec)
Heartbeat CPU 2 instructions: 240000006 cycles: 60016468 heartbeat IPC: 4 cumulative IPC: 3.999 (Simulation time: 01 hr 59 min 01 sec)
Heartbeat CPU 1 instructions: 140000011 cycles: 61410361 heartbeat IPC: 2.669 cumulative IPC: 2.28 (Simulation time: 02 hr 01 min 40 sec)
Heartbeat CPU 0 instructions: 30000005 cycles: 62315496 heartbeat IPC: 0.4969 cumulative IPC: 0.4814 (Simulation time: 02 hr 03 min 23 sec)
Heartbeat CPU 3 instructions: 250000004 cycles: 62514008 heartbeat IPC: 4 cumulative IPC: 3.999 (Simulation time: 02 hr 03 min 46 sec)
Heartbeat CPU 2 instructions: 250000006 cycles: 62516468 heartbeat IPC: 4 cumulative IPC: 3.999 (Simulation time: 02 hr 03 min 46 sec)
Heartbeat CPU 3 instructions: 260000004 cycles: 65014008 heartbeat IPC: 4 cumulative IPC: 3.999 (Simulation time: 02 hr 08 min 33 sec)
Heartbeat CPU 2 instructions: 260000006 cycles: 65016468 heartbeat IPC: 4 cumulative IPC: 3.999 (Simulation time: 02 hr 08 min 33 sec)
Heartbeat CPU 1 instructions: 150000011 cycles: 65613674 heartbeat IPC: 2.379 cumulative IPC: 2.286 (Simulation time: 02 hr 09 min 42 sec)
Heartbeat CPU 3 instructions: 270000004 cycles: 67514008 heartbeat IPC: 4 cumulative IPC: 3.999 (Simulation time: 02 hr 13 min 19 sec)
Heartbeat CPU 2 instructions: 270000006 cycles: 67516468 heartbeat IPC: 4 cumulative IPC: 3.999 (Simulation time: 02 hr 13 min 20 sec)
*** Reached end of trace: (2, "traces/ocean_8t/ocean2.champsimtrace")
*** Reached end of trace: (3, "traces/ocean_8t/ocean3.champsimtrace")
Heartbeat CPU 1 instructions: 160000014 cycles: 69741077 heartbeat IPC: 2.423 cumulative IPC: 2.294 (Simulation time: 02 hr 17 min 33 sec)
Heartbeat CPU 3 instructions: 280000004 cycles: 70014008 heartbeat IPC: 4 cumulative IPC: 3.999 (Simulation time: 02 hr 18 min 03 sec)
Heartbeat CPU 2 instructions: 280000006 cycles: 70016468 heartbeat IPC: 4 cumulative IPC: 3.999 (Simulation time: 02 hr 18 min 03 sec)
Heartbeat CPU 3 instructions: 290000004 cycles: 72514008 heartbeat IPC: 4 cumulative IPC: 3.999 (Simulation time: 02 hr 22 min 41 sec)
Heartbeat CPU 2 instructions: 290000006 cycles: 72516468 heartbeat IPC: 4 cumulative IPC: 3.999 (Simulation time: 02 hr 22 min 42 sec)
Heartbeat CPU 3 instructions: 300000004 cycles: 75014008 heartbeat IPC: 4 cumulative IPC: 3.999 (Simulation time: 02 hr 27 min 16 sec)
Heartbeat CPU 2 instructions: 300000006 cycles: 75016468 heartbeat IPC: 4 cumulative IPC: 3.999 (Simulation time: 02 hr 27 min 17 sec)
Heartbeat CPU 1 instructions: 170000014 cycles: 75319858 heartbeat IPC: 1.793 cumulative IPC: 2.257 (Simulation time: 02 hr 27 min 51 sec)
Heartbeat CPU 3 instructions: 310000004 cycles: 77514008 heartbeat IPC: 4 cumulative IPC: 3.999 (Simulation time: 02 hr 32 min 04 sec)
Heartbeat CPU 2 instructions: 310000006 cycles: 77516468 heartbeat IPC: 4 cumulative IPC: 3.999 (Simulation time: 02 hr 32 min 04 sec)
Heartbeat CPU 1 instructions: 180000017 cycles: 78874311 heartbeat IPC: 2.813 cumulative IPC: 2.282 (Simulation time: 02 hr 34 min 38 sec)
*** Reached end of trace: (2, "traces/ocean_8t/ocean2.champsimtrace")
*** Reached end of trace: (3, "traces/ocean_8t/ocean3.champsimtrace")
*** Reached end of trace: (1, "traces/ocean_8t/ocean1.champsimtrace")
Heartbeat CPU 3 instructions: 320000004 cycles: 80014008 heartbeat IPC: 4 cumulative IPC: 3.999 (Simulation time: 02 hr 36 min 47 sec)
Heartbeat CPU 2 instructions: 320000006 cycles: 80016468 heartbeat IPC: 4 cumulative IPC: 3.999 (Simulation time: 02 hr 36 min 47 sec)
Heartbeat CPU 3 instructions: 330000004 cycles: 82514008 heartbeat IPC: 4 cumulative IPC: 3.999 (Simulation time: 02 hr 41 min 32 sec)
Heartbeat CPU 2 instructions: 330000006 cycles: 82516468 heartbeat IPC: 4 cumulative IPC: 3.999 (Simulation time: 02 hr 41 min 33 sec)
Heartbeat CPU 1 instructions: 190000020 cycles: 82886599 heartbeat IPC: 2.492 cumulative IPC: 2.292 (Simulation time: 02 hr 42 min 15 sec)
Heartbeat CPU 0 instructions: 40000006 cycles: 84779088 heartbeat IPC: 0.4452 cumulative IPC: 0.4718 (Simulation time: 02 hr 45 min 47 sec)
Heartbeat CPU 3 instructions: 340000004 cycles: 85014008 heartbeat IPC: 4 cumulative IPC: 3.999 (Simulation time: 02 hr 46 min 15 sec)
Heartbeat CPU 2 instructions: 340000006 cycles: 85016468 heartbeat IPC: 4 cumulative IPC: 3.999 (Simulation time: 02 hr 46 min 15 sec)
Heartbeat CPU 1 instructions: 200000020 cycles: 86984154 heartbeat IPC: 2.44 cumulative IPC: 2.299 (Simulation time: 02 hr 49 min 55 sec)
Heartbeat CPU 3 instructions: 350000004 cycles: 87514008 heartbeat IPC: 4 cumulative IPC: 3.999 (Simulation time: 02 hr 50 min 54 sec)
Heartbeat CPU 2 instructions: 350000006 cycles: 87516468 heartbeat IPC: 4 cumulative IPC: 3.999 (Simulation time: 02 hr 50 min 55 sec)
Heartbeat CPU 3 instructions: 360000004 cycles: 90014008 heartbeat IPC: 4 cumulative IPC: 3.999 (Simulation time: 02 hr 55 min 43 sec)
Heartbeat CPU 2 instructions: 360000006 cycles: 90016468 heartbeat IPC: 4 cumulative IPC: 3.999 (Simulation time: 02 hr 55 min 43 sec)
*** Reached end of trace: (2, "traces/ocean_8t/ocean2.champsimtrace")
*** Reached end of trace: (3, "traces/ocean_8t/ocean3.champsimtrace")
Heartbeat CPU 1 instructions: 210000023 cycles: 91734540 heartbeat IPC: 2.105 cumulative IPC: 2.289 (Simulation time: 02 hr 59 min 02 sec)
Heartbeat CPU 3 instructions: 370000004 cycles: 92514008 heartbeat IPC: 4 cumulative IPC: 3.999 (Simulation time: 03 hr 00 min 31 sec)
Heartbeat CPU 2 instructions: 370000006 cycles: 92516468 heartbeat IPC: 4 cumulative IPC: 3.999 (Simulation time: 03 hr 00 min 31 sec)
Heartbeat CPU 3 instructions: 380000004 cycles: 95014008 heartbeat IPC: 4 cumulative IPC: 3.999 (Simulation time: 03 hr 05 min 06 sec)
Heartbeat CPU 2 instructions: 380000006 cycles: 95016468 heartbeat IPC: 4 cumulative IPC: 3.999 (Simulation time: 03 hr 05 min 06 sec)
Heartbeat CPU 1 instructions: 220000026 cycles: 96458306 heartbeat IPC: 2.117 cumulative IPC: 2.281 (Simulation time: 03 hr 07 min 34 sec)
Heartbeat CPU 3 instructions: 390000004 cycles: 97514008 heartbeat IPC: 4 cumulative IPC: 3.999 (Simulation time: 03 hr 09 min 29 sec)
Heartbeat CPU 2 instructions: 390000006 cycles: 97516468 heartbeat IPC: 4 cumulative IPC: 3.999 (Simulation time: 03 hr 09 min 29 sec)
*** Reached end of trace: (0, "traces/ocean_8t/ocean0.champsimtrace")
*** Reached end of trace: (1, "traces/ocean_8t/ocean1.champsimtrace")
Heartbeat CPU 3 instructions: 400000004 cycles: 100014008 heartbeat IPC: 4 cumulative IPC: 3.999 (Simulation time: 03 hr 14 min 23 sec)
Heartbeat CPU 2 instructions: 400000006 cycles: 100016468 heartbeat IPC: 4 cumulative IPC: 3.999 (Simulation time: 03 hr 14 min 23 sec)
Heartbeat CPU 1 instructions: 230000028 cycles: 100180005 heartbeat IPC: 2.687 cumulative IPC: 2.296 (Simulation time: 03 hr 14 min 43 sec)
*** Reached end of trace: (2, "traces/ocean_8t/ocean2.champsimtrace")
*** Reached end of trace: (3, "traces/ocean_8t/ocean3.champsimtrace")
Heartbeat CPU 3 instructions: 410000004 cycles: 102514008 heartbeat IPC: 4 cumulative IPC: 3.999 (Simulation time: 03 hr 19 min 11 sec)
Heartbeat CPU 2 instructions: 410000006 cycles: 102516468 heartbeat IPC: 4 cumulative IPC: 3.999 (Simulation time: 03 hr 19 min 11 sec)
Heartbeat CPU 1 instructions: 240000029 cycles: 104353280 heartbeat IPC: 2.396 cumulative IPC: 2.3 (Simulation time: 03 hr 22 min 40 sec)
Heartbeat CPU 3 instructions: 420000004 cycles: 105014008 heartbeat IPC: 4 cumulative IPC: 3.999 (Simulation time: 03 hr 23 min 53 sec)
Heartbeat CPU 2 instructions: 420000006 cycles: 105016468 heartbeat IPC: 4 cumulative IPC: 3.999 (Simulation time: 03 hr 23 min 53 sec)
Warmup finished CPU 0 instructions: 50000000 cycles: 106619868 cumulative IPC: 0.469 (Simulation time: 03 hr 26 min 56 sec)
Warmup complete CPU 3 instructions: 426423444 cycles: 106619868 cumulative IPC: 3.999 (Simulation time: 03 hr 26 min 56 sec)
Warmup complete CPU 2 instructions: 426413606 cycles: 106619868 cumulative IPC: 3.999 (Simulation time: 03 hr 26 min 56 sec)
Warmup complete CPU 1 instructions: 245712244 cycles: 106619868 cumulative IPC: 2.305 (Simulation time: 03 hr 26 min 56 sec)
Warmup complete CPU 0 instructions: 50000000 cycles: 106619868 cumulative IPC: 0.469 (Simulation time: 03 hr 26 min 56 sec)
Heartbeat CPU 0 instructions: 50000008 cycles: 106619890 heartbeat IPC: 0.4579 cumulative IPC: 0.3636 (Simulation time: 03 hr 26 min 56 sec)
Heartbeat CPU 3 instructions: 430000004 cycles: 107514008 heartbeat IPC: 4 cumulative IPC: 4 (Simulation time: 03 hr 28 min 36 sec)
Heartbeat CPU 2 instructions: 430000006 cycles: 107516468 heartbeat IPC: 4 cumulative IPC: 4 (Simulation time: 03 hr 28 min 36 sec)
Heartbeat CPU 3 instructions: 440000004 cycles: 110014008 heartbeat IPC: 4 cumulative IPC: 4 (Simulation time: 03 hr 32 min 59 sec)
Heartbeat CPU 2 instructions: 440000006 cycles: 110016468 heartbeat IPC: 4 cumulative IPC: 4 (Simulation time: 03 hr 32 min 59 sec)
Heartbeat CPU 3 instructions: 450000004 cycles: 112514008 heartbeat IPC: 4 cumulative IPC: 4 (Simulation time: 03 hr 37 min 18 sec)
Heartbeat CPU 2 instructions: 450000006 cycles: 112516468 heartbeat IPC: 4 cumulative IPC: 4 (Simulation time: 03 hr 37 min 18 sec)
*** Reached end of trace: (2, "traces/ocean_8t/ocean2.champsimtrace")
*** Reached end of trace: (3, "traces/ocean_8t/ocean3.champsimtrace")
Heartbeat CPU 3 instructions: 460000007 cycles: 115014026 heartbeat IPC: 4 cumulative IPC: 4 (Simulation time: 03 hr 41 min 34 sec)
Heartbeat CPU 2 instructions: 460000007 cycles: 115016491 heartbeat IPC: 4 cumulative IPC: 4 (Simulation time: 03 hr 41 min 34 sec)
Heartbeat CPU 3 instructions: 470000007 cycles: 117514026 heartbeat IPC: 4 cumulative IPC: 4 (Simulation time: 03 hr 45 min 51 sec)
Heartbeat CPU 2 instructions: 470000007 cycles: 117516491 heartbeat IPC: 4 cumulative IPC: 4 (Simulation time: 03 hr 45 min 51 sec)
Heartbeat CPU 1 instructions: 250000029 cycles: 119711803 heartbeat IPC: 0.6511 cumulative IPC: 0.3275 (Simulation time: 03 hr 49 min 39 sec)
Heartbeat CPU 3 instructions: 480000007 cycles: 120014026 heartbeat IPC: 4 cumulative IPC: 4 (Simulation time: 03 hr 50 min 10 sec)
Heartbeat CPU 2 instructions: 480000007 cycles: 120016491 heartbeat IPC: 4 cumulative IPC: 4 (Simulation time: 03 hr 50 min 10 sec)
Heartbeat CPU 3 instructions: 490000007 cycles: 122514026 heartbeat IPC: 4 cumulative IPC: 4 (Simulation time: 03 hr 54 min 23 sec)
Heartbeat CPU 2 instructions: 490000007 cycles: 122516491 heartbeat IPC: 4 cumulative IPC: 4 (Simulation time: 03 hr 54 min 24 sec)
*** Reached end of trace: (2, "traces/ocean_8t/ocean2.champsimtrace")
*** Reached end of trace: (3, "traces/ocean_8t/ocean3.champsimtrace")
Heartbeat CPU 3 instructions: 500000010 cycles: 125014043 heartbeat IPC: 4 cumulative IPC: 4 (Simulation time: 03 hr 58 min 39 sec)
Heartbeat CPU 2 instructions: 500000008 cycles: 125016514 heartbeat IPC: 4 cumulative IPC: 4 (Simulation time: 03 hr 58 min 39 sec)
Heartbeat CPU 3 instructions: 510000010 cycles: 127514043 heartbeat IPC: 4 cumulative IPC: 4 (Simulation time: 04 hr 02 min 49 sec)
Heartbeat CPU 2 instructions: 510000008 cycles: 127516514 heartbeat IPC: 4 cumulative IPC: 4 (Simulation time: 04 hr 02 min 49 sec)
Heartbeat CPU 3 instructions: 520000010 cycles: 130014043 heartbeat IPC: 4 cumulative IPC: 4 (Simulation time: 04 hr 06 min 57 sec)
Heartbeat CPU 2 instructions: 520000008 cycles: 130016514 heartbeat IPC: 4 cumulative IPC: 4 (Simulation time: 04 hr 06 min 57 sec)
Simulation finished CPU 3 instructions: 100000002 cycles: 25000034 cumulative IPC: 4 (Simulation time: 04 hr 09 min 37 sec)
Simulation finished CPU 2 instructions: 100000002 cycles: 25000046 cumulative IPC: 4 (Simulation time: 04 hr 09 min 37 sec)
Heartbeat CPU 3 instructions: 530000010 cycles: 132514043 heartbeat IPC: 4 cumulative IPC: 4 (Simulation time: 04 hr 11 min 08 sec)
Heartbeat CPU 2 instructions: 530000008 cycles: 132516514 heartbeat IPC: 4 cumulative IPC: 4 (Simulation time: 04 hr 11 min 08 sec)
Heartbeat CPU 3 instructions: 540000010 cycles: 135014043 heartbeat IPC: 4 cumulative IPC: 4 (Simulation time: 04 hr 15 min 18 sec)
Heartbeat CPU 2 instructions: 540000008 cycles: 135016514 heartbeat IPC: 4 cumulative IPC: 4 (Simulation time: 04 hr 15 min 18 sec)
*** Reached end of trace: (2, "traces/ocean_8t/ocean2.champsimtrace")
*** Reached end of trace: (3, "traces/ocean_8t/ocean3.champsimtrace")
Heartbeat CPU 3 instructions: 550000013 cycles: 137514060 heartbeat IPC: 4 cumulative IPC: 4 (Simulation time: 04 hr 19 min 28 sec)
Heartbeat CPU 2 instructions: 550000009 cycles: 137516537 heartbeat IPC: 4 cumulative IPC: 4 (Simulation time: 04 hr 19 min 28 sec)
Heartbeat CPU 3 instructions: 560000013 cycles: 140014060 heartbeat IPC: 4 cumulative IPC: 4 (Simulation time: 04 hr 23 min 36 sec)
Heartbeat CPU 2 instructions: 560000009 cycles: 140016537 heartbeat IPC: 4 cumulative IPC: 4 (Simulation time: 04 hr 23 min 36 sec)
Heartbeat CPU 3 instructions: 570000013 cycles: 142514060 heartbeat IPC: 4 cumulative IPC: 4 (Simulation time: 04 hr 27 min 46 sec)
Heartbeat CPU 2 instructions: 570000009 cycles: 142516537 heartbeat IPC: 4 cumulative IPC: 4 (Simulation time: 04 hr 27 min 46 sec)
Heartbeat CPU 3 instructions: 580000013 cycles: 145014060 heartbeat IPC: 4 cumulative IPC: 4 (Simulation time: 04 hr 32 min 00 sec)
Heartbeat CPU 2 instructions: 580000009 cycles: 145016537 heartbeat IPC: 4 cumulative IPC: 4 (Simulation time: 04 hr 32 min 00 sec)
*** Reached end of trace: (2, "traces/ocean_8t/ocean2.champsimtrace")
Heartbeat CPU 3 instructions: 590000013 cycles: 147514060 heartbeat IPC: 4 cumulative IPC: 4 (Simulation time: 04 hr 36 min 19 sec)
Heartbeat CPU 2 instructions: 590000010 cycles: 147516560 heartbeat IPC: 4 cumulative IPC: 4 (Simulation time: 04 hr 36 min 20 sec)
*** Reached end of trace: (3, "traces/ocean_8t/ocean3.champsimtrace")
Heartbeat CPU 3 instructions: 600000016 cycles: 150014077 heartbeat IPC: 4 cumulative IPC: 4 (Simulation time: 04 hr 40 min 34 sec)
Heartbeat CPU 2 instructions: 600000010 cycles: 150016560 heartbeat IPC: 4 cumulative IPC: 4 (Simulation time: 04 hr 40 min 34 sec)
Heartbeat CPU 3 instructions: 610000016 cycles: 152514077 heartbeat IPC: 4 cumulative IPC: 4 (Simulation time: 04 hr 44 min 43 sec)
Heartbeat CPU 2 instructions: 610000010 cycles: 152516560 heartbeat IPC: 4 cumulative IPC: 4 (Simulation time: 04 hr 44 min 44 sec)
Heartbeat CPU 0 instructions: 60000011 cycles: 153590669 heartbeat IPC: 0.2129 cumulative IPC: 0.2129 (Simulation time: 04 hr 46 min 33 sec)
Heartbeat CPU 3 instructions: 620000016 cycles: 155014077 heartbeat IPC: 4 cumulative IPC: 4 (Simulation time: 04 hr 48 min 57 sec)
Heartbeat CPU 2 instructions: 620000010 cycles: 155016560 heartbeat IPC: 4 cumulative IPC: 4 (Simulation time: 04 hr 48 min 57 sec)
Heartbeat CPU 3 instructions: 630000016 cycles: 157514077 heartbeat IPC: 4 cumulative IPC: 4 (Simulation time: 04 hr 53 min 15 sec)
Heartbeat CPU 2 instructions: 630000010 cycles: 157516560 heartbeat IPC: 4 cumulative IPC: 4 (Simulation time: 04 hr 53 min 15 sec)
*** Reached end of trace: (2, "traces/ocean_8t/ocean2.champsimtrace")
*** Reached end of trace: (3, "traces/ocean_8t/ocean3.champsimtrace")
Heartbeat CPU 3 instructions: 640000019 cycles: 160014094 heartbeat IPC: 4 cumulative IPC: 4 (Simulation time: 04 hr 57 min 35 sec)
Heartbeat CPU 2 instructions: 640000011 cycles: 160016583 heartbeat IPC: 4 cumulative IPC: 4 (Simulation time: 04 hr 57 min 36 sec)
Heartbeat CPU 1 instructions: 260000030 cycles: 162192504 heartbeat IPC: 0.2354 cumulative IPC: 0.2571 (Simulation time: 05 hr 01 min 32 sec)
Heartbeat CPU 3 instructions: 650000019 cycles: 162514094 heartbeat IPC: 4 cumulative IPC: 4 (Simulation time: 05 hr 02 min 07 sec)
Heartbeat CPU 2 instructions: 650000011 cycles: 162516583 heartbeat IPC: 4 cumulative IPC: 4 (Simulation time: 05 hr 02 min 07 sec)
Heartbeat CPU 3 instructions: 660000019 cycles: 165014094 heartbeat IPC: 4 cumulative IPC: 4 (Simulation time: 05 hr 06 min 33 sec)
Heartbeat CPU 2 instructions: 660000011 cycles: 165016583 heartbeat IPC: 4 cumulative IPC: 4 (Simulation time: 05 hr 06 min 33 sec)
Heartbeat CPU 3 instructions: 670000019 cycles: 167514094 heartbeat IPC: 4 cumulative IPC: 4 (Simulation time: 05 hr 10 min 54 sec)
Heartbeat CPU 2 instructions: 670000011 cycles: 167516583 heartbeat IPC: 4 cumulative IPC: 4 (Simulation time: 05 hr 10 min 54 sec)
*** Reached end of trace: (2, "traces/ocean_8t/ocean2.champsimtrace")
Heartbeat CPU 3 instructions: 680000019 cycles: 170014094 heartbeat IPC: 4 cumulative IPC: 4 (Simulation time: 05 hr 15 min 17 sec)
Heartbeat CPU 2 instructions: 680000012 cycles: 170016606 heartbeat IPC: 4 cumulative IPC: 4 (Simulation time: 05 hr 15 min 17 sec)
*** Reached end of trace: (3, "traces/ocean_8t/ocean3.champsimtrace")
Heartbeat CPU 3 instructions: 690000022 cycles: 172514111 heartbeat IPC: 4 cumulative IPC: 4 (Simulation time: 05 hr 19 min 37 sec)
Heartbeat CPU 2 instructions: 690000012 cycles: 172516606 heartbeat IPC: 4 cumulative IPC: 4 (Simulation time: 05 hr 19 min 38 sec)
Heartbeat CPU 3 instructions: 700000022 cycles: 175014111 heartbeat IPC: 4 cumulative IPC: 4 (Simulation time: 05 hr 23 min 54 sec)
Heartbeat CPU 2 instructions: 700000012 cycles: 175016606 heartbeat IPC: 4 cumulative IPC: 4 (Simulation time: 05 hr 23 min 54 sec)
Heartbeat CPU 3 instructions: 710000022 cycles: 177514111 heartbeat IPC: 4 cumulative IPC: 4 (Simulation time: 05 hr 28 min 09 sec)
Heartbeat CPU 2 instructions: 710000012 cycles: 177516606 heartbeat IPC: 4 cumulative IPC: 4 (Simulation time: 05 hr 28 min 10 sec)
Heartbeat CPU 3 instructions: 720000022 cycles: 180014111 heartbeat IPC: 4 cumulative IPC: 4 (Simulation time: 05 hr 32 min 28 sec)
Heartbeat CPU 2 instructions: 720000012 cycles: 180016606 heartbeat IPC: 4 cumulative IPC: 4 (Simulation time: 05 hr 32 min 28 sec)
*** Reached end of trace: (2, "traces/ocean_8t/ocean2.champsimtrace")
*** Reached end of trace: (3, "traces/ocean_8t/ocean3.champsimtrace")
Heartbeat CPU 3 instructions: 730000025 cycles: 182514128 heartbeat IPC: 4 cumulative IPC: 4 (Simulation time: 05 hr 36 min 46 sec)
Heartbeat CPU 2 instructions: 730000013 cycles: 182516629 heartbeat IPC: 4 cumulative IPC: 4 (Simulation time: 05 hr 36 min 46 sec)
Heartbeat CPU 3 instructions: 740000025 cycles: 185014128 heartbeat IPC: 4 cumulative IPC: 4 (Simulation time: 05 hr 41 min 07 sec)
Heartbeat CPU 2 instructions: 740000013 cycles: 185016629 heartbeat IPC: 4 cumulative IPC: 4 (Simulation time: 05 hr 41 min 07 sec)
Heartbeat CPU 3 instructions: 750000025 cycles: 187514128 heartbeat IPC: 4 cumulative IPC: 4 (Simulation time: 05 hr 45 min 20 sec)
Heartbeat CPU 2 instructions: 750000013 cycles: 187516629 heartbeat IPC: 4 cumulative IPC: 4 (Simulation time: 05 hr 45 min 21 sec)
Heartbeat CPU 3 instructions: 760000025 cycles: 190014128 heartbeat IPC: 4 cumulative IPC: 4 (Simulation time: 05 hr 49 min 32 sec)
Heartbeat CPU 2 instructions: 760000013 cycles: 190016629 heartbeat IPC: 4 cumulative IPC: 4 (Simulation time: 05 hr 49 min 32 sec)
*** Reached end of trace: (2, "traces/ocean_8t/ocean2.champsimtrace")
Heartbeat CPU 3 instructions: 770000025 cycles: 192514128 heartbeat IPC: 4 cumulative IPC: 4 (Simulation time: 05 hr 53 min 57 sec)
Heartbeat CPU 2 instructions: 770000014 cycles: 192516652 heartbeat IPC: 4 cumulative IPC: 4 (Simulation time: 05 hr 53 min 57 sec)
*** Reached end of trace: (3, "traces/ocean_8t/ocean3.champsimtrace")
Heartbeat CPU 3 instructions: 780000028 cycles: 195014145 heartbeat IPC: 4 cumulative IPC: 4 (Simulation time: 05 hr 58 min 08 sec)
Heartbeat CPU 2 instructions: 780000014 cycles: 195016652 heartbeat IPC: 4 cumulative IPC: 4 (Simulation time: 05 hr 58 min 08 sec)
Heartbeat CPU 3 instructions: 790000028 cycles: 197514145 heartbeat IPC: 4 cumulative IPC: 4 (Simulation time: 06 hr 02 min 19 sec)
Heartbeat CPU 2 instructions: 790000014 cycles: 197516652 heartbeat IPC: 4 cumulative IPC: 4 (Simulation time: 06 hr 02 min 19 sec)
Heartbeat CPU 3 instructions: 800000028 cycles: 200014145 heartbeat IPC: 4 cumulative IPC: 4 (Simulation time: 06 hr 06 min 22 sec)
Heartbeat CPU 2 instructions: 800000014 cycles: 200016652 heartbeat IPC: 4 cumulative IPC: 4 (Simulation time: 06 hr 06 min 23 sec)
Heartbeat CPU 3 instructions: 810000028 cycles: 202514145 heartbeat IPC: 4 cumulative IPC: 4 (Simulation time: 06 hr 10 min 24 sec)
Heartbeat CPU 2 instructions: 810000014 cycles: 202516652 heartbeat IPC: 4 cumulative IPC: 4 (Simulation time: 06 hr 10 min 25 sec)
*** Reached end of trace: (2, "traces/ocean_8t/ocean2.champsimtrace")
Heartbeat CPU 1 instructions: 270000030 cycles: 203375697 heartbeat IPC: 0.2428 cumulative IPC: 0.251 (Simulation time: 06 hr 11 min 51 sec)
*** Reached end of trace: (3, "traces/ocean_8t/ocean3.champsimtrace")
Heartbeat CPU 3 instructions: 820000031 cycles: 205014162 heartbeat IPC: 4 cumulative IPC: 4 (Simulation time: 06 hr 14 min 36 sec)
Heartbeat CPU 2 instructions: 820000015 cycles: 205016675 heartbeat IPC: 4 cumulative IPC: 4 (Simulation time: 06 hr 14 min 36 sec)
Heartbeat CPU 3 instructions: 830000031 cycles: 207514162 heartbeat IPC: 4 cumulative IPC: 4 (Simulation time: 06 hr 18 min 42 sec)
Heartbeat CPU 2 instructions: 830000015 cycles: 207516675 heartbeat IPC: 4 cumulative IPC: 4 (Simulation time: 06 hr 18 min 42 sec)
Heartbeat CPU 3 instructions: 840000031 cycles: 210014162 heartbeat IPC: 4 cumulative IPC: 4 (Simulation time: 06 hr 22 min 44 sec)
Heartbeat CPU 2 instructions: 840000015 cycles: 210016675 heartbeat IPC: 4 cumulative IPC: 4 (Simulation time: 06 hr 22 min 45 sec)
*** Reached end of trace: (1, "traces/ocean_8t/ocean1.champsimtrace")
Heartbeat CPU 3 instructions: 850000031 cycles: 212514162 heartbeat IPC: 4 cumulative IPC: 4 (Simulation time: 06 hr 26 min 44 sec)
Heartbeat CPU 2 instructions: 850000015 cycles: 212516675 heartbeat IPC: 4 cumulative IPC: 4 (Simulation time: 06 hr 26 min 44 sec)
*** Reached end of trace: (2, "traces/ocean_8t/ocean2.champsimtrace")
Heartbeat CPU 3 instructions: 860000031 cycles: 215014162 heartbeat IPC: 4 cumulative IPC: 4 (Simulation time: 06 hr 30 min 47 sec)
Heartbeat CPU 2 instructions: 860000016 cycles: 215016698 heartbeat IPC: 4 cumulative IPC: 4 (Simulation time: 06 hr 30 min 47 sec)
*** Reached end of trace: (3, "traces/ocean_8t/ocean3.champsimtrace")
Heartbeat CPU 3 instructions: 870000034 cycles: 217514179 heartbeat IPC: 4 cumulative IPC: 4 (Simulation time: 06 hr 34 min 50 sec)
Heartbeat CPU 2 instructions: 870000016 cycles: 217516698 heartbeat IPC: 4 cumulative IPC: 4 (Simulation time: 06 hr 34 min 51 sec)
Heartbeat CPU 3 instructions: 880000034 cycles: 220014179 heartbeat IPC: 4 cumulative IPC: 4 (Simulation time: 06 hr 38 min 51 sec)
Heartbeat CPU 2 instructions: 880000016 cycles: 220016698 heartbeat IPC: 4 cumulative IPC: 4 (Simulation time: 06 hr 38 min 51 sec)
Heartbeat CPU 0 instructions: 70000013 cycles: 222102593 heartbeat IPC: 0.146 cumulative IPC: 0.1732 (Simulation time: 06 hr 42 min 13 sec)
Heartbeat CPU 3 instructions: 890000034 cycles: 222514179 heartbeat IPC: 4 cumulative IPC: 4 (Simulation time: 06 hr 42 min 54 sec)
Heartbeat CPU 2 instructions: 890000016 cycles: 222516698 heartbeat IPC: 4 cumulative IPC: 4 (Simulation time: 06 hr 42 min 54 sec)
Heartbeat CPU 3 instructions: 900000034 cycles: 225014179 heartbeat IPC: 4 cumulative IPC: 4 (Simulation time: 06 hr 47 min 02 sec)
Heartbeat CPU 2 instructions: 900000016 cycles: 225016698 heartbeat IPC: 4 cumulative IPC: 4 (Simulation time: 06 hr 47 min 03 sec)
*** Reached end of trace: (2, "traces/ocean_8t/ocean2.champsimtrace")
*** Reached end of trace: (3, "traces/ocean_8t/ocean3.champsimtrace")
Heartbeat CPU 3 instructions: 910000037 cycles: 227514196 heartbeat IPC: 4 cumulative IPC: 4 (Simulation time: 06 hr 51 min 03 sec)
Heartbeat CPU 2 instructions: 910000017 cycles: 227516721 heartbeat IPC: 4 cumulative IPC: 4 (Simulation time: 06 hr 51 min 03 sec)
Heartbeat CPU 3 instructions: 920000037 cycles: 230014196 heartbeat IPC: 4 cumulative IPC: 4 (Simulation time: 06 hr 54 min 15 sec)
Heartbeat CPU 2 instructions: 920000017 cycles: 230016721 heartbeat IPC: 4 cumulative IPC: 4 (Simulation time: 06 hr 54 min 15 sec)
Heartbeat CPU 3 instructions: 930000037 cycles: 232514196 heartbeat IPC: 4 cumulative IPC: 4 (Simulation time: 06 hr 58 min 24 sec)
Heartbeat CPU 2 instructions: 930000017 cycles: 232516721 heartbeat IPC: 4 cumulative IPC: 4 (Simulation time: 06 hr 58 min 25 sec)
Heartbeat CPU 1 instructions: 280000031 cycles: 234789002 heartbeat IPC: 0.3183 cumulative IPC: 0.2675 (Simulation time: 07 hr 02 min 18 sec)
Heartbeat CPU 3 instructions: 940000037 cycles: 235014196 heartbeat IPC: 4 cumulative IPC: 4 (Simulation time: 07 hr 02 min 41 sec)
Heartbeat CPU 2 instructions: 940000017 cycles: 235016721 heartbeat IPC: 4 cumulative IPC: 4 (Simulation time: 07 hr 02 min 41 sec)
*** Reached end of trace: (2, "traces/ocean_8t/ocean2.champsimtrace")
Heartbeat CPU 3 instructions: 950000037 cycles: 237514196 heartbeat IPC: 4 cumulative IPC: 4 (Simulation time: 07 hr 07 min 02 sec)
Heartbeat CPU 2 instructions: 950000018 cycles: 237516744 heartbeat IPC: 4 cumulative IPC: 4 (Simulation time: 07 hr 07 min 03 sec)
*** Reached end of trace: (3, "traces/ocean_8t/ocean3.champsimtrace")
Heartbeat CPU 3 instructions: 960000040 cycles: 240014213 heartbeat IPC: 4 cumulative IPC: 4 (Simulation time: 07 hr 11 min 27 sec)
Heartbeat CPU 2 instructions: 960000018 cycles: 240016744 heartbeat IPC: 4 cumulative IPC: 4 (Simulation time: 07 hr 11 min 27 sec)
Heartbeat CPU 3 instructions: 970000040 cycles: 242514213 heartbeat IPC: 4 cumulative IPC: 4 (Simulation time: 07 hr 15 min 48 sec)
Heartbeat CPU 2 instructions: 970000018 cycles: 242516744 heartbeat IPC: 4 cumulative IPC: 4 (Simulation time: 07 hr 15 min 49 sec)
Heartbeat CPU 3 instructions: 980000040 cycles: 245014213 heartbeat IPC: 4 cumulative IPC: 4 (Simulation time: 07 hr 20 min 00 sec)
Heartbeat CPU 2 instructions: 980000018 cycles: 245016744 heartbeat IPC: 4 cumulative IPC: 4 (Simulation time: 07 hr 20 min 01 sec)
Heartbeat CPU 3 instructions: 990000040 cycles: 247514213 heartbeat IPC: 4 cumulative IPC: 4 (Simulation time: 07 hr 24 min 18 sec)
Heartbeat CPU 2 instructions: 990000018 cycles: 247516744 heartbeat IPC: 4 cumulative IPC: 4 (Simulation time: 07 hr 24 min 18 sec)
*** Reached end of trace: (2, "traces/ocean_8t/ocean2.champsimtrace")
*** Reached end of trace: (3, "traces/ocean_8t/ocean3.champsimtrace")
Heartbeat CPU 3 instructions: 1000000043 cycles: 250014230 heartbeat IPC: 4 cumulative IPC: 4 (Simulation time: 07 hr 28 min 47 sec)
Heartbeat CPU 2 instructions: 1000000019 cycles: 250016767 heartbeat IPC: 4 cumulative IPC: 4 (Simulation time: 07 hr 28 min 47 sec)
Heartbeat CPU 3 instructions: 1010000043 cycles: 252514230 heartbeat IPC: 4 cumulative IPC: 4 (Simulation time: 07 hr 33 min 12 sec)
Heartbeat CPU 2 instructions: 1010000019 cycles: 252516767 heartbeat IPC: 4 cumulative IPC: 4 (Simulation time: 07 hr 33 min 12 sec)
Heartbeat CPU 3 instructions: 1020000043 cycles: 255014230 heartbeat IPC: 4 cumulative IPC: 4 (Simulation time: 07 hr 37 min 38 sec)
Heartbeat CPU 2 instructions: 1020000019 cycles: 255016767 heartbeat IPC: 4 cumulative IPC: 4 (Simulation time: 07 hr 37 min 38 sec)
Heartbeat CPU 3 instructions: 1030000043 cycles: 257514230 heartbeat IPC: 4 cumulative IPC: 4 (Simulation time: 07 hr 42 min 07 sec)
Heartbeat CPU 2 instructions: 1030000019 cycles: 257516767 heartbeat IPC: 4 cumulative IPC: 4 (Simulation time: 07 hr 42 min 08 sec)
*** Reached end of trace: (2, "traces/ocean_8t/ocean2.champsimtrace")
Heartbeat CPU 3 instructions: 1040000043 cycles: 260014230 heartbeat IPC: 4 cumulative IPC: 4 (Simulation time: 07 hr 46 min 14 sec)
Heartbeat CPU 2 instructions: 1040000020 cycles: 260016790 heartbeat IPC: 4 cumulative IPC: 4 (Simulation time: 07 hr 46 min 14 sec)
*** Reached end of trace: (3, "traces/ocean_8t/ocean3.champsimtrace")
Heartbeat CPU 3 instructions: 1050000046 cycles: 262514247 heartbeat IPC: 4 cumulative IPC: 4 (Simulation time: 07 hr 50 min 22 sec)
Heartbeat CPU 2 instructions: 1050000020 cycles: 262516790 heartbeat IPC: 4 cumulative IPC: 4 (Simulation time: 07 hr 50 min 22 sec)
Heartbeat CPU 1 instructions: 290000034 cycles: 264777910 heartbeat IPC: 0.3335 cumulative IPC: 0.28 (Simulation time: 07 hr 54 min 15 sec)
Heartbeat CPU 3 instructions: 1060000046 cycles: 265014247 heartbeat IPC: 4 cumulative IPC: 4 (Simulation time: 07 hr 54 min 40 sec)
Heartbeat CPU 2 instructions: 1060000020 cycles: 265016790 heartbeat IPC: 4 cumulative IPC: 4 (Simulation time: 07 hr 54 min 40 sec)
Heartbeat CPU 3 instructions: 1070000046 cycles: 267514247 heartbeat IPC: 4 cumulative IPC: 4 (Simulation time: 07 hr 58 min 54 sec)
Heartbeat CPU 2 instructions: 1070000020 cycles: 267516790 heartbeat IPC: 4 cumulative IPC: 4 (Simulation time: 07 hr 58 min 54 sec)
Heartbeat CPU 3 instructions: 1080000046 cycles: 270014247 heartbeat IPC: 4 cumulative IPC: 4 (Simulation time: 08 hr 03 min 04 sec)
Heartbeat CPU 2 instructions: 1080000020 cycles: 270016790 heartbeat IPC: 4 cumulative IPC: 4 (Simulation time: 08 hr 03 min 04 sec)
*** Reached end of trace: (2, "traces/ocean_8t/ocean2.champsimtrace")
*** Reached end of trace: (3, "traces/ocean_8t/ocean3.champsimtrace")
Heartbeat CPU 3 instructions: 1090000049 cycles: 272514264 heartbeat IPC: 4 cumulative IPC: 4 (Simulation time: 08 hr 07 min 16 sec)
Heartbeat CPU 2 instructions: 1090000021 cycles: 272516813 heartbeat IPC: 4 cumulative IPC: 4 (Simulation time: 08 hr 07 min 16 sec)
Heartbeat CPU 3 instructions: 1100000049 cycles: 275014264 heartbeat IPC: 4 cumulative IPC: 4 (Simulation time: 08 hr 11 min 26 sec)
Heartbeat CPU 2 instructions: 1100000021 cycles: 275016813 heartbeat IPC: 4 cumulative IPC: 4 (Simulation time: 08 hr 11 min 26 sec)
Heartbeat CPU 3 instructions: 1110000049 cycles: 277514264 heartbeat IPC: 4 cumulative IPC: 4 (Simulation time: 08 hr 15 min 36 sec)
Heartbeat CPU 2 instructions: 1110000021 cycles: 277516813 heartbeat IPC: 4 cumulative IPC: 4 (Simulation time: 08 hr 15 min 36 sec)
Heartbeat CPU 0 instructions: 80000017 cycles: 278751524 heartbeat IPC: 0.1765 cumulative IPC: 0.1743 (Simulation time: 08 hr 17 min 42 sec)
Heartbeat CPU 3 instructions: 1120000049 cycles: 280014264 heartbeat IPC: 4 cumulative IPC: 4 (Simulation time: 08 hr 19 min 49 sec)
Heartbeat CPU 2 instructions: 1120000021 cycles: 280016813 heartbeat IPC: 4 cumulative IPC: 4 (Simulation time: 08 hr 19 min 49 sec)
*** Reached end of trace: (2, "traces/ocean_8t/ocean2.champsimtrace")
Heartbeat CPU 3 instructions: 1130000049 cycles: 282514264 heartbeat IPC: 4 cumulative IPC: 4 (Simulation time: 08 hr 24 min 02 sec)
Heartbeat CPU 2 instructions: 1130000022 cycles: 282516836 heartbeat IPC: 4 cumulative IPC: 4 (Simulation time: 08 hr 24 min 02 sec)
*** Reached end of trace: (3, "traces/ocean_8t/ocean3.champsimtrace")
Heartbeat CPU 3 instructions: 1140000052 cycles: 285014281 heartbeat IPC: 4 cumulative IPC: 4 (Simulation time: 08 hr 28 min 16 sec)
Heartbeat CPU 2 instructions: 1140000022 cycles: 285016836 heartbeat IPC: 4 cumulative IPC: 4 (Simulation time: 08 hr 28 min 16 sec)
Heartbeat CPU 3 instructions: 1150000052 cycles: 287514281 heartbeat IPC: 4 cumulative IPC: 4 (Simulation time: 08 hr 32 min 25 sec)
Heartbeat CPU 2 instructions: 1150000022 cycles: 287516836 heartbeat IPC: 4 cumulative IPC: 4 (Simulation time: 08 hr 32 min 25 sec)
Heartbeat CPU 3 instructions: 1160000052 cycles: 290014281 heartbeat IPC: 4 cumulative IPC: 4 (Simulation time: 08 hr 36 min 30 sec)
Heartbeat CPU 2 instructions: 1160000022 cycles: 290016836 heartbeat IPC: 4 cumulative IPC: 4 (Simulation time: 08 hr 36 min 31 sec)
Heartbeat CPU 3 instructions: 1170000052 cycles: 292514281 heartbeat IPC: 4 cumulative IPC: 4 (Simulation time: 08 hr 40 min 43 sec)
Heartbeat CPU 2 instructions: 1170000022 cycles: 292516836 heartbeat IPC: 4 cumulative IPC: 4 (Simulation time: 08 hr 40 min 43 sec)
*** Reached end of trace: (2, "traces/ocean_8t/ocean2.champsimtrace")
Heartbeat CPU 3 instructions: 1180000052 cycles: 295014281 heartbeat IPC: 4 cumulative IPC: 4 (Simulation time: 08 hr 44 min 52 sec)
Heartbeat CPU 2 instructions: 1180000023 cycles: 295016859 heartbeat IPC: 4 cumulative IPC: 4 (Simulation time: 08 hr 44 min 53 sec)
*** Reached end of trace: (3, "traces/ocean_8t/ocean3.champsimtrace")
Heartbeat CPU 3 instructions: 1190000055 cycles: 297514298 heartbeat IPC: 4 cumulative IPC: 4 (Simulation time: 08 hr 49 min 06 sec)
Heartbeat CPU 2 instructions: 1190000023 cycles: 297516859 heartbeat IPC: 4 cumulative IPC: 4 (Simulation time: 08 hr 49 min 06 sec)
Heartbeat CPU 3 instructions: 1200000055 cycles: 300014298 heartbeat IPC: 4 cumulative IPC: 4 (Simulation time: 08 hr 53 min 19 sec)
Heartbeat CPU 2 instructions: 1200000023 cycles: 300016859 heartbeat IPC: 4 cumulative IPC: 4 (Simulation time: 08 hr 53 min 19 sec)
Heartbeat CPU 3 instructions: 1210000055 cycles: 302514298 heartbeat IPC: 4 cumulative IPC: 4 (Simulation time: 08 hr 57 min 36 sec)
Heartbeat CPU 2 instructions: 1210000023 cycles: 302516859 heartbeat IPC: 4 cumulative IPC: 4 (Simulation time: 08 hr 57 min 36 sec)
Heartbeat CPU 3 instructions: 1220000055 cycles: 305014298 heartbeat IPC: 4 cumulative IPC: 4 (Simulation time: 09 hr 01 min 52 sec)
Heartbeat CPU 2 instructions: 1220000023 cycles: 305016859 heartbeat IPC: 4 cumulative IPC: 4 (Simulation time: 09 hr 01 min 52 sec)
*** Reached end of trace: (2, "traces/ocean_8t/ocean2.champsimtrace")
*** Reached end of trace: (3, "traces/ocean_8t/ocean3.champsimtrace")
Heartbeat CPU 1 instructions: 300000034 cycles: 307125299 heartbeat IPC: 0.2361 cumulative IPC: 0.2708 (Simulation time: 09 hr 05 min 26 sec)
Heartbeat CPU 3 instructions: 1230000058 cycles: 307514315 heartbeat IPC: 4 cumulative IPC: 4 (Simulation time: 09 hr 06 min 06 sec)
Heartbeat CPU 2 instructions: 1230000024 cycles: 307516882 heartbeat IPC: 4 cumulative IPC: 4 (Simulation time: 09 hr 06 min 06 sec)
Heartbeat CPU 3 instructions: 1240000058 cycles: 310014315 heartbeat IPC: 4 cumulative IPC: 4 (Simulation time: 09 hr 10 min 23 sec)
Heartbeat CPU 2 instructions: 1240000024 cycles: 310016882 heartbeat IPC: 4 cumulative IPC: 4 (Simulation time: 09 hr 10 min 23 sec)
Heartbeat CPU 3 instructions: 1250000058 cycles: 312514315 heartbeat IPC: 4 cumulative IPC: 4 (Simulation time: 09 hr 14 min 31 sec)
Heartbeat CPU 2 instructions: 1250000024 cycles: 312516882 heartbeat IPC: 4 cumulative IPC: 4 (Simulation time: 09 hr 14 min 31 sec)
Heartbeat CPU 3 instructions: 1260000058 cycles: 315014315 heartbeat IPC: 4 cumulative IPC: 4 (Simulation time: 09 hr 18 min 48 sec)
Heartbeat CPU 2 instructions: 1260000024 cycles: 315016882 heartbeat IPC: 4 cumulative IPC: 4 (Simulation time: 09 hr 18 min 48 sec)
*** Reached end of trace: (2, "traces/ocean_8t/ocean2.champsimtrace")
Heartbeat CPU 3 instructions: 1270000058 cycles: 317514315 heartbeat IPC: 4 cumulative IPC: 4 (Simulation time: 09 hr 23 min 06 sec)
Heartbeat CPU 2 instructions: 1270000025 cycles: 317516905 heartbeat IPC: 4 cumulative IPC: 4 (Simulation time: 09 hr 23 min 06 sec)
*** Reached end of trace: (3, "traces/ocean_8t/ocean3.champsimtrace")
Heartbeat CPU 3 instructions: 1280000061 cycles: 320014332 heartbeat IPC: 4 cumulative IPC: 4 (Simulation time: 09 hr 27 min 15 sec)
Heartbeat CPU 2 instructions: 1280000025 cycles: 320016905 heartbeat IPC: 4 cumulative IPC: 4 (Simulation time: 09 hr 27 min 15 sec)
Heartbeat CPU 3 instructions: 1290000061 cycles: 322514332 heartbeat IPC: 4 cumulative IPC: 4 (Simulation time: 09 hr 31 min 25 sec)
Heartbeat CPU 2 instructions: 1290000025 cycles: 322516905 heartbeat IPC: 4 cumulative IPC: 4 (Simulation time: 09 hr 31 min 25 sec)
Heartbeat CPU 3 instructions: 1300000061 cycles: 325014332 heartbeat IPC: 4 cumulative IPC: 4 (Simulation time: 09 hr 35 min 25 sec)
Heartbeat CPU 2 instructions: 1300000025 cycles: 325016905 heartbeat IPC: 4 cumulative IPC: 4 (Simulation time: 09 hr 35 min 25 sec)
Heartbeat CPU 3 instructions: 1310000061 cycles: 327514332 heartbeat IPC: 4 cumulative IPC: 4 (Simulation time: 09 hr 39 min 34 sec)
Heartbeat CPU 2 instructions: 1310000025 cycles: 327516905 heartbeat IPC: 4 cumulative IPC: 4 (Simulation time: 09 hr 39 min 35 sec)
*** Reached end of trace: (2, "traces/ocean_8t/ocean2.champsimtrace")
*** Reached end of trace: (3, "traces/ocean_8t/ocean3.champsimtrace")
Heartbeat CPU 3 instructions: 1320000064 cycles: 330014349 heartbeat IPC: 4 cumulative IPC: 4 (Simulation time: 09 hr 43 min 46 sec)
Heartbeat CPU 2 instructions: 1320000026 cycles: 330016928 heartbeat IPC: 4 cumulative IPC: 4 (Simulation time: 09 hr 43 min 47 sec)
Heartbeat CPU 3 instructions: 1330000064 cycles: 332514349 heartbeat IPC: 4 cumulative IPC: 4 (Simulation time: 09 hr 47 min 59 sec)
Heartbeat CPU 2 instructions: 1330000026 cycles: 332516928 heartbeat IPC: 4 cumulative IPC: 4 (Simulation time: 09 hr 47 min 59 sec)
Heartbeat CPU 3 instructions: 1340000064 cycles: 335014349 heartbeat IPC: 4 cumulative IPC: 4 (Simulation time: 09 hr 52 min 07 sec)
Heartbeat CPU 2 instructions: 1340000026 cycles: 335016928 heartbeat IPC: 4 cumulative IPC: 4 (Simulation time: 09 hr 52 min 07 sec)
Heartbeat CPU 3 instructions: 1350000064 cycles: 337514349 heartbeat IPC: 4 cumulative IPC: 4 (Simulation time: 09 hr 56 min 26 sec)
Heartbeat CPU 2 instructions: 1350000026 cycles: 337516928 heartbeat IPC: 4 cumulative IPC: 4 (Simulation time: 09 hr 56 min 26 sec)
*** Reached end of trace: (2, "traces/ocean_8t/ocean2.champsimtrace")
Heartbeat CPU 3 instructions: 1360000064 cycles: 340014349 heartbeat IPC: 4 cumulative IPC: 4 (Simulation time: 10 hr 00 min 38 sec)
Heartbeat CPU 2 instructions: 1360000027 cycles: 340016951 heartbeat IPC: 4 cumulative IPC: 4 (Simulation time: 10 hr 00 min 38 sec)
*** Reached end of trace: (3, "traces/ocean_8t/ocean3.champsimtrace")
Heartbeat CPU 3 instructions: 1370000067 cycles: 342514366 heartbeat IPC: 4 cumulative IPC: 4 (Simulation time: 10 hr 05 min 04 sec)
Heartbeat CPU 2 instructions: 1370000027 cycles: 342516951 heartbeat IPC: 4 cumulative IPC: 4 (Simulation time: 10 hr 05 min 05 sec)
Heartbeat CPU 3 instructions: 1380000067 cycles: 345014366 heartbeat IPC: 4 cumulative IPC: 4 (Simulation time: 10 hr 09 min 33 sec)
Heartbeat CPU 2 instructions: 1380000027 cycles: 345016951 heartbeat IPC: 4 cumulative IPC: 4 (Simulation time: 10 hr 09 min 33 sec)
Heartbeat CPU 3 instructions: 1390000067 cycles: 347514366 heartbeat IPC: 4 cumulative IPC: 4 (Simulation time: 10 hr 14 min 01 sec)
Heartbeat CPU 2 instructions: 1390000027 cycles: 347516951 heartbeat IPC: 4 cumulative IPC: 4 (Simulation time: 10 hr 14 min 01 sec)
Heartbeat CPU 3 instructions: 1400000067 cycles: 350014366 heartbeat IPC: 4 cumulative IPC: 4 (Simulation time: 10 hr 18 min 24 sec)
Heartbeat CPU 2 instructions: 1400000027 cycles: 350016951 heartbeat IPC: 4 cumulative IPC: 4 (Simulation time: 10 hr 18 min 24 sec)
*** Reached end of trace: (2, "traces/ocean_8t/ocean2.champsimtrace")
Heartbeat CPU 1 instructions: 310000034 cycles: 350293960 heartbeat IPC: 0.2316 cumulative IPC: 0.2638 (Simulation time: 10 hr 18 min 51 sec)
*** Reached end of trace: (3, "traces/ocean_8t/ocean3.champsimtrace")
Heartbeat CPU 3 instructions: 1410000070 cycles: 352514383 heartbeat IPC: 4 cumulative IPC: 4 (Simulation time: 10 hr 22 min 34 sec)
Heartbeat CPU 2 instructions: 1410000028 cycles: 352516974 heartbeat IPC: 4 cumulative IPC: 4 (Simulation time: 10 hr 22 min 34 sec)
Heartbeat CPU 0 instructions: 90000021 cycles: 353617992 heartbeat IPC: 0.1336 cumulative IPC: 0.1619 (Simulation time: 10 hr 24 min 23 sec)
Heartbeat CPU 3 instructions: 1420000070 cycles: 355014383 heartbeat IPC: 4 cumulative IPC: 4 (Simulation time: 10 hr 26 min 44 sec)
Heartbeat CPU 2 instructions: 1420000028 cycles: 355016974 heartbeat IPC: 4 cumulative IPC: 4 (Simulation time: 10 hr 26 min 44 sec)
Heartbeat CPU 3 instructions: 1430000070 cycles: 357514383 heartbeat IPC: 4 cumulative IPC: 4 (Simulation time: 10 hr 30 min 43 sec)
Heartbeat CPU 2 instructions: 1430000028 cycles: 357516974 heartbeat IPC: 4 cumulative IPC: 4 (Simulation time: 10 hr 30 min 43 sec)
Heartbeat CPU 3 instructions: 1440000070 cycles: 360014383 heartbeat IPC: 4 cumulative IPC: 4 (Simulation time: 10 hr 34 min 43 sec)
Heartbeat CPU 2 instructions: 1440000028 cycles: 360016974 heartbeat IPC: 4 cumulative IPC: 4 (Simulation time: 10 hr 34 min 44 sec)
*** Reached end of trace: (2, "traces/ocean_8t/ocean2.champsimtrace")
Heartbeat CPU 3 instructions: 1450000070 cycles: 362514383 heartbeat IPC: 4 cumulative IPC: 4 (Simulation time: 10 hr 38 min 39 sec)
Heartbeat CPU 2 instructions: 1450000029 cycles: 362516997 heartbeat IPC: 4 cumulative IPC: 4 (Simulation time: 10 hr 38 min 39 sec)
*** Reached end of trace: (3, "traces/ocean_8t/ocean3.champsimtrace")
*** Reached end of trace: (0, "traces/ocean_8t/ocean0.champsimtrace")
Heartbeat CPU 3 instructions: 1460000073 cycles: 365014400 heartbeat IPC: 4 cumulative IPC: 4 (Simulation time: 10 hr 42 min 46 sec)
Heartbeat CPU 2 instructions: 1460000029 cycles: 365016997 heartbeat IPC: 4 cumulative IPC: 4 (Simulation time: 10 hr 42 min 46 sec)
Heartbeat CPU 3 instructions: 1470000073 cycles: 367514400 heartbeat IPC: 4 cumulative IPC: 4 (Simulation time: 10 hr 46 min 49 sec)
Heartbeat CPU 2 instructions: 1470000029 cycles: 367516997 heartbeat IPC: 4 cumulative IPC: 4 (Simulation time: 10 hr 46 min 49 sec)
Heartbeat CPU 3 instructions: 1480000073 cycles: 370014400 heartbeat IPC: 4 cumulative IPC: 4 (Simulation time: 10 hr 50 min 55 sec)
Heartbeat CPU 2 instructions: 1480000029 cycles: 370016997 heartbeat IPC: 4 cumulative IPC: 4 (Simulation time: 10 hr 50 min 55 sec)
Heartbeat CPU 3 instructions: 1490000073 cycles: 372514400 heartbeat IPC: 4 cumulative IPC: 4 (Simulation time: 10 hr 54 min 56 sec)
Heartbeat CPU 2 instructions: 1490000029 cycles: 372516997 heartbeat IPC: 4 cumulative IPC: 4 (Simulation time: 10 hr 54 min 56 sec)
*** Reached end of trace: (2, "traces/ocean_8t/ocean2.champsimtrace")
*** Reached end of trace: (3, "traces/ocean_8t/ocean3.champsimtrace")
Heartbeat CPU 3 instructions: 1500000076 cycles: 375014417 heartbeat IPC: 4 cumulative IPC: 4 (Simulation time: 10 hr 58 min 58 sec)
Heartbeat CPU 2 instructions: 1500000030 cycles: 375017020 heartbeat IPC: 4 cumulative IPC: 4 (Simulation time: 10 hr 58 min 58 sec)
*** Reached end of trace: (1, "traces/ocean_8t/ocean1.champsimtrace")
Heartbeat CPU 1 instructions: 320000035 cycles: 377027029 heartbeat IPC: 0.3741 cumulative IPC: 0.2747 (Simulation time: 11 hr 02 min 12 sec)
Heartbeat CPU 3 instructions: 1510000076 cycles: 377514417 heartbeat IPC: 4 cumulative IPC: 4 (Simulation time: 11 hr 03 min 01 sec)
Heartbeat CPU 2 instructions: 1510000030 cycles: 377517020 heartbeat IPC: 4 cumulative IPC: 4 (Simulation time: 11 hr 03 min 01 sec)
Heartbeat CPU 3 instructions: 1520000076 cycles: 380014417 heartbeat IPC: 4 cumulative IPC: 4 (Simulation time: 11 hr 07 min 18 sec)
Heartbeat CPU 2 instructions: 1520000030 cycles: 380017020 heartbeat IPC: 4 cumulative IPC: 4 (Simulation time: 11 hr 07 min 18 sec)
Heartbeat CPU 3 instructions: 1530000076 cycles: 382514417 heartbeat IPC: 4 cumulative IPC: 4 (Simulation time: 11 hr 11 min 38 sec)
Heartbeat CPU 2 instructions: 1530000030 cycles: 382517020 heartbeat IPC: 4 cumulative IPC: 4 (Simulation time: 11 hr 11 min 39 sec)
*** Reached end of trace: (2, "traces/ocean_8t/ocean2.champsimtrace")
Heartbeat CPU 3 instructions: 1540000076 cycles: 385014417 heartbeat IPC: 4 cumulative IPC: 4 (Simulation time: 11 hr 15 min 44 sec)
Heartbeat CPU 2 instructions: 1540000031 cycles: 385017043 heartbeat IPC: 4 cumulative IPC: 4 (Simulation time: 11 hr 15 min 44 sec)
*** Reached end of trace: (3, "traces/ocean_8t/ocean3.champsimtrace")
Heartbeat CPU 3 instructions: 1550000079 cycles: 387514434 heartbeat IPC: 4 cumulative IPC: 4 (Simulation time: 11 hr 19 min 44 sec)
Heartbeat CPU 2 instructions: 1550000031 cycles: 387517043 heartbeat IPC: 4 cumulative IPC: 4 (Simulation time: 11 hr 19 min 44 sec)
Heartbeat CPU 3 instructions: 1560000079 cycles: 390014434 heartbeat IPC: 4 cumulative IPC: 4 (Simulation time: 11 hr 23 min 49 sec)
Heartbeat CPU 2 instructions: 1560000031 cycles: 390017043 heartbeat IPC: 4 cumulative IPC: 4 (Simulation time: 11 hr 23 min 49 sec)
Heartbeat CPU 1 instructions: 330000036 cycles: 392191068 heartbeat IPC: 0.6595 cumulative IPC: 0.2952 (Simulation time: 11 hr 27 min 11 sec)
Heartbeat CPU 3 instructions: 1570000079 cycles: 392514434 heartbeat IPC: 4 cumulative IPC: 4 (Simulation time: 11 hr 27 min 43 sec)
Heartbeat CPU 2 instructions: 1570000031 cycles: 392517043 heartbeat IPC: 4 cumulative IPC: 4 (Simulation time: 11 hr 27 min 43 sec)
Heartbeat CPU 3 instructions: 1580000079 cycles: 395014434 heartbeat IPC: 4 cumulative IPC: 4 (Simulation time: 11 hr 31 min 45 sec)
Heartbeat CPU 2 instructions: 1580000031 cycles: 395017043 heartbeat IPC: 4 cumulative IPC: 4 (Simulation time: 11 hr 31 min 45 sec)
Heartbeat CPU 0 instructions: 100000022 cycles: 395338076 heartbeat IPC: 0.2397 cumulative IPC: 0.1732 (Simulation time: 11 hr 32 min 18 sec)
*** Reached end of trace: (2, "traces/ocean_8t/ocean2.champsimtrace")
*** Reached end of trace: (3, "traces/ocean_8t/ocean3.champsimtrace")
Heartbeat CPU 3 instructions: 1590000082 cycles: 397514451 heartbeat IPC: 4 cumulative IPC: 4 (Simulation time: 11 hr 35 min 53 sec)
Heartbeat CPU 2 instructions: 1590000032 cycles: 397517066 heartbeat IPC: 4 cumulative IPC: 4 (Simulation time: 11 hr 35 min 54 sec)
Heartbeat CPU 3 instructions: 1600000082 cycles: 400014451 heartbeat IPC: 4 cumulative IPC: 4 (Simulation time: 11 hr 39 min 54 sec)
Heartbeat CPU 2 instructions: 1600000032 cycles: 400017066 heartbeat IPC: 4 cumulative IPC: 4 (Simulation time: 11 hr 39 min 54 sec)
Heartbeat CPU 3 instructions: 1610000082 cycles: 402514451 heartbeat IPC: 4 cumulative IPC: 4 (Simulation time: 11 hr 44 min 06 sec)
Heartbeat CPU 2 instructions: 1610000032 cycles: 402517066 heartbeat IPC: 4 cumulative IPC: 4 (Simulation time: 11 hr 44 min 06 sec)
Heartbeat CPU 3 instructions: 1620000082 cycles: 405014451 heartbeat IPC: 4 cumulative IPC: 4 (Simulation time: 11 hr 48 min 15 sec)
Heartbeat CPU 2 instructions: 1620000032 cycles: 405017066 heartbeat IPC: 4 cumulative IPC: 4 (Simulation time: 11 hr 48 min 15 sec)
*** Reached end of trace: (2, "traces/ocean_8t/ocean2.champsimtrace")
Heartbeat CPU 3 instructions: 1630000082 cycles: 407514451 heartbeat IPC: 4 cumulative IPC: 4 (Simulation time: 11 hr 52 min 16 sec)
Heartbeat CPU 2 instructions: 1630000033 cycles: 407517089 heartbeat IPC: 4 cumulative IPC: 4 (Simulation time: 11 hr 52 min 17 sec)
*** Reached end of trace: (3, "traces/ocean_8t/ocean3.champsimtrace")
Heartbeat CPU 3 instructions: 1640000085 cycles: 410014468 heartbeat IPC: 4 cumulative IPC: 4 (Simulation time: 11 hr 56 min 29 sec)
Heartbeat CPU 2 instructions: 1640000033 cycles: 410017089 heartbeat IPC: 4 cumulative IPC: 4 (Simulation time: 11 hr 56 min 29 sec)
Heartbeat CPU 3 instructions: 1650000085 cycles: 412514468 heartbeat IPC: 4 cumulative IPC: 4 (Simulation time: 12 hr 00 min 31 sec)
Heartbeat CPU 2 instructions: 1650000033 cycles: 412517089 heartbeat IPC: 4 cumulative IPC: 4 (Simulation time: 12 hr 00 min 31 sec)
Heartbeat CPU 3 instructions: 1660000085 cycles: 415014468 heartbeat IPC: 4 cumulative IPC: 4 (Simulation time: 12 hr 04 min 35 sec)
Heartbeat CPU 2 instructions: 1660000033 cycles: 415017089 heartbeat IPC: 4 cumulative IPC: 4 (Simulation time: 12 hr 04 min 35 sec)
Heartbeat CPU 3 instructions: 1670000085 cycles: 417514468 heartbeat IPC: 4 cumulative IPC: 4 (Simulation time: 12 hr 08 min 39 sec)
Heartbeat CPU 2 instructions: 1670000033 cycles: 417517089 heartbeat IPC: 4 cumulative IPC: 4 (Simulation time: 12 hr 08 min 40 sec)
*** Reached end of trace: (2, "traces/ocean_8t/ocean2.champsimtrace")
*** Reached end of trace: (3, "traces/ocean_8t/ocean3.champsimtrace")
Heartbeat CPU 3 instructions: 1680000088 cycles: 420014485 heartbeat IPC: 4 cumulative IPC: 4 (Simulation time: 12 hr 13 min 01 sec)
Heartbeat CPU 2 instructions: 1680000034 cycles: 420017112 heartbeat IPC: 4 cumulative IPC: 4 (Simulation time: 12 hr 13 min 01 sec)
Heartbeat CPU 3 instructions: 1690000088 cycles: 422514485 heartbeat IPC: 4 cumulative IPC: 4 (Simulation time: 12 hr 17 min 13 sec)
Heartbeat CPU 2 instructions: 1690000034 cycles: 422517112 heartbeat IPC: 4 cumulative IPC: 4 (Simulation time: 12 hr 17 min 13 sec)
Heartbeat CPU 3 instructions: 1700000088 cycles: 425014485 heartbeat IPC: 4 cumulative IPC: 4 (Simulation time: 12 hr 21 min 21 sec)
Heartbeat CPU 2 instructions: 1700000034 cycles: 425017112 heartbeat IPC: 4 cumulative IPC: 4 (Simulation time: 12 hr 21 min 21 sec)
Heartbeat CPU 1 instructions: 340000038 cycles: 427291710 heartbeat IPC: 0.2849 cumulative IPC: 0.294 (Simulation time: 12 hr 25 min 13 sec)
Heartbeat CPU 3 instructions: 1710000088 cycles: 427514485 heartbeat IPC: 4 cumulative IPC: 4 (Simulation time: 12 hr 25 min 37 sec)
Heartbeat CPU 2 instructions: 1710000034 cycles: 427517112 heartbeat IPC: 4 cumulative IPC: 4 (Simulation time: 12 hr 25 min 37 sec)
*** Reached end of trace: (2, "traces/ocean_8t/ocean2.champsimtrace")
Heartbeat CPU 3 instructions: 1720000088 cycles: 430014485 heartbeat IPC: 4 cumulative IPC: 4 (Simulation time: 12 hr 29 min 53 sec)
Heartbeat CPU 2 instructions: 1720000035 cycles: 430017135 heartbeat IPC: 4 cumulative IPC: 4 (Simulation time: 12 hr 29 min 54 sec)
*** Reached end of trace: (3, "traces/ocean_8t/ocean3.champsimtrace")
Heartbeat CPU 3 instructions: 1730000091 cycles: 432514502 heartbeat IPC: 4 cumulative IPC: 4 (Simulation time: 12 hr 34 min 03 sec)
Heartbeat CPU 2 instructions: 1730000035 cycles: 432517135 heartbeat IPC: 4 cumulative IPC: 4 (Simulation time: 12 hr 34 min 04 sec)
Heartbeat CPU 3 instructions: 1740000091 cycles: 435014502 heartbeat IPC: 4 cumulative IPC: 4 (Simulation time: 12 hr 38 min 19 sec)
Heartbeat CPU 2 instructions: 1740000035 cycles: 435017135 heartbeat IPC: 4 cumulative IPC: 4 (Simulation time: 12 hr 38 min 19 sec)
Heartbeat CPU 3 instructions: 1750000091 cycles: 437514502 heartbeat IPC: 4 cumulative IPC: 4 (Simulation time: 12 hr 42 min 30 sec)
Heartbeat CPU 2 instructions: 1750000035 cycles: 437517135 heartbeat IPC: 4 cumulative IPC: 4 (Simulation time: 12 hr 42 min 31 sec)
Heartbeat CPU 3 instructions: 1760000091 cycles: 440014502 heartbeat IPC: 4 cumulative IPC: 4 (Simulation time: 12 hr 46 min 43 sec)
Heartbeat CPU 2 instructions: 1760000035 cycles: 440017135 heartbeat IPC: 4 cumulative IPC: 4 (Simulation time: 12 hr 46 min 44 sec)
*** Reached end of trace: (2, "traces/ocean_8t/ocean2.champsimtrace")
Heartbeat CPU 3 instructions: 1770000091 cycles: 442514502 heartbeat IPC: 4 cumulative IPC: 4 (Simulation time: 12 hr 50 min 54 sec)
Heartbeat CPU 2 instructions: 1770000036 cycles: 442517158 heartbeat IPC: 4 cumulative IPC: 4 (Simulation time: 12 hr 50 min 54 sec)
*** Reached end of trace: (3, "traces/ocean_8t/ocean3.champsimtrace")
Heartbeat CPU 3 instructions: 1780000094 cycles: 445014519 heartbeat IPC: 4 cumulative IPC: 4 (Simulation time: 12 hr 55 min 11 sec)
Heartbeat CPU 2 instructions: 1780000036 cycles: 445017158 heartbeat IPC: 4 cumulative IPC: 4 (Simulation time: 12 hr 55 min 12 sec)
Heartbeat CPU 3 instructions: 1790000094 cycles: 447514519 heartbeat IPC: 4 cumulative IPC: 4 (Simulation time: 12 hr 59 min 26 sec)
Heartbeat CPU 2 instructions: 1790000036 cycles: 447517158 heartbeat IPC: 4 cumulative IPC: 4 (Simulation time: 12 hr 59 min 26 sec)
Heartbeat CPU 0 instructions: 110000022 cycles: 448859943 heartbeat IPC: 0.1868 cumulative IPC: 0.1753 (Simulation time: 13 hr 01 min 36 sec)
Heartbeat CPU 3 instructions: 1800000094 cycles: 450014519 heartbeat IPC: 4 cumulative IPC: 4 (Simulation time: 13 hr 03 min 32 sec)
Heartbeat CPU 2 instructions: 1800000036 cycles: 450017158 heartbeat IPC: 4 cumulative IPC: 4 (Simulation time: 13 hr 03 min 32 sec)
Simulation finished CPU 1 instructions: 100000002 cycles: 344205078 cumulative IPC: 0.2905 (Simulation time: 13 hr 04 min 55 sec)
*** Reached end of trace: (2, "traces/ocean_8t/ocean2.champsimtrace")
Heartbeat CPU 3 instructions: 1810000094 cycles: 452514519 heartbeat IPC: 4 cumulative IPC: 4 (Simulation time: 13 hr 07 min 47 sec)
Heartbeat CPU 2 instructions: 1810000037 cycles: 452517181 heartbeat IPC: 4 cumulative IPC: 4 (Simulation time: 13 hr 07 min 47 sec)
*** Reached end of trace: (3, "traces/ocean_8t/ocean3.champsimtrace")
Heartbeat CPU 3 instructions: 1820000097 cycles: 455014536 heartbeat IPC: 4 cumulative IPC: 4 (Simulation time: 13 hr 11 min 57 sec)
Heartbeat CPU 2 instructions: 1820000037 cycles: 455017181 heartbeat IPC: 4 cumulative IPC: 4 (Simulation time: 13 hr 11 min 57 sec)
Heartbeat CPU 3 instructions: 1830000097 cycles: 457514536 heartbeat IPC: 4 cumulative IPC: 4 (Simulation time: 13 hr 16 min 11 sec)
Heartbeat CPU 2 instructions: 1830000037 cycles: 457517181 heartbeat IPC: 4 cumulative IPC: 4 (Simulation time: 13 hr 16 min 11 sec)
Heartbeat CPU 3 instructions: 1840000097 cycles: 460014536 heartbeat IPC: 4 cumulative IPC: 4 (Simulation time: 13 hr 20 min 12 sec)
Heartbeat CPU 2 instructions: 1840000037 cycles: 460017181 heartbeat IPC: 4 cumulative IPC: 4 (Simulation time: 13 hr 20 min 13 sec)
Heartbeat CPU 3 instructions: 1850000097 cycles: 462514536 heartbeat IPC: 4 cumulative IPC: 4 (Simulation time: 13 hr 24 min 17 sec)
Heartbeat CPU 2 instructions: 1850000037 cycles: 462517181 heartbeat IPC: 4 cumulative IPC: 4 (Simulation time: 13 hr 24 min 17 sec)
*** Reached end of trace: (2, "traces/ocean_8t/ocean2.champsimtrace")
Heartbeat CPU 3 instructions: 1860000097 cycles: 465014536 heartbeat IPC: 4 cumulative IPC: 4 (Simulation time: 13 hr 28 min 34 sec)
Heartbeat CPU 2 instructions: 1860000038 cycles: 465017204 heartbeat IPC: 4 cumulative IPC: 4 (Simulation time: 13 hr 28 min 34 sec)
*** Reached end of trace: (3, "traces/ocean_8t/ocean3.champsimtrace")
Heartbeat CPU 3 instructions: 1870000100 cycles: 467514553 heartbeat IPC: 4 cumulative IPC: 4 (Simulation time: 13 hr 32 min 44 sec)
Heartbeat CPU 2 instructions: 1870000038 cycles: 467517204 heartbeat IPC: 4 cumulative IPC: 4 (Simulation time: 13 hr 32 min 44 sec)
Heartbeat CPU 3 instructions: 1880000100 cycles: 470014553 heartbeat IPC: 4 cumulative IPC: 4 (Simulation time: 13 hr 36 min 59 sec)
Heartbeat CPU 2 instructions: 1880000038 cycles: 470017204 heartbeat IPC: 4 cumulative IPC: 4 (Simulation time: 13 hr 36 min 59 sec)
Heartbeat CPU 1 instructions: 350000041 cycles: 471867828 heartbeat IPC: 0.2243 cumulative IPC: 0.2855 (Simulation time: 13 hr 40 min 05 sec)
Heartbeat CPU 3 instructions: 1890000100 cycles: 472514553 heartbeat IPC: 4 cumulative IPC: 4 (Simulation time: 13 hr 41 min 10 sec)
Heartbeat CPU 2 instructions: 1890000038 cycles: 472517204 heartbeat IPC: 4 cumulative IPC: 4 (Simulation time: 13 hr 41 min 10 sec)
*** Reached end of trace: (2, "traces/ocean_8t/ocean2.champsimtrace")
Heartbeat CPU 3 instructions: 1900000100 cycles: 475014553 heartbeat IPC: 4 cumulative IPC: 4 (Simulation time: 13 hr 45 min 28 sec)
Heartbeat CPU 2 instructions: 1900000039 cycles: 475017227 heartbeat IPC: 4 cumulative IPC: 4 (Simulation time: 13 hr 45 min 28 sec)
*** Reached end of trace: (3, "traces/ocean_8t/ocean3.champsimtrace")
Heartbeat CPU 3 instructions: 1910000103 cycles: 477514570 heartbeat IPC: 4 cumulative IPC: 4 (Simulation time: 13 hr 49 min 42 sec)
Heartbeat CPU 2 instructions: 1910000039 cycles: 477517227 heartbeat IPC: 4 cumulative IPC: 4 (Simulation time: 13 hr 49 min 42 sec)
Heartbeat CPU 3 instructions: 1920000103 cycles: 480014570 heartbeat IPC: 4 cumulative IPC: 4 (Simulation time: 13 hr 53 min 48 sec)
Heartbeat CPU 2 instructions: 1920000039 cycles: 480017227 heartbeat IPC: 4 cumulative IPC: 4 (Simulation time: 13 hr 53 min 48 sec)
Heartbeat CPU 3 instructions: 1930000103 cycles: 482514570 heartbeat IPC: 4 cumulative IPC: 4 (Simulation time: 13 hr 57 min 54 sec)
Heartbeat CPU 2 instructions: 1930000039 cycles: 482517227 heartbeat IPC: 4 cumulative IPC: 4 (Simulation time: 13 hr 57 min 55 sec)
Heartbeat CPU 3 instructions: 1940000103 cycles: 485014570 heartbeat IPC: 4 cumulative IPC: 4 (Simulation time: 14 hr 02 min 01 sec)
Heartbeat CPU 2 instructions: 1940000039 cycles: 485017227 heartbeat IPC: 4 cumulative IPC: 4 (Simulation time: 14 hr 02 min 01 sec)
*** Reached end of trace: (2, "traces/ocean_8t/ocean2.champsimtrace")
Heartbeat CPU 3 instructions: 1950000103 cycles: 487514570 heartbeat IPC: 4 cumulative IPC: 4 (Simulation time: 14 hr 06 min 05 sec)
Heartbeat CPU 2 instructions: 1950000040 cycles: 487517250 heartbeat IPC: 4 cumulative IPC: 4 (Simulation time: 14 hr 06 min 05 sec)
*** Reached end of trace: (3, "traces/ocean_8t/ocean3.champsimtrace")
Heartbeat CPU 3 instructions: 1960000106 cycles: 490014587 heartbeat IPC: 4 cumulative IPC: 4 (Simulation time: 14 hr 10 min 14 sec)
Heartbeat CPU 2 instructions: 1960000040 cycles: 490017250 heartbeat IPC: 4 cumulative IPC: 4 (Simulation time: 14 hr 10 min 15 sec)
Heartbeat CPU 3 instructions: 1970000106 cycles: 492514587 heartbeat IPC: 4 cumulative IPC: 4 (Simulation time: 14 hr 14 min 20 sec)
Heartbeat CPU 2 instructions: 1970000040 cycles: 492517250 heartbeat IPC: 4 cumulative IPC: 4 (Simulation time: 14 hr 14 min 21 sec)
Heartbeat CPU 3 instructions: 1980000106 cycles: 495014587 heartbeat IPC: 4 cumulative IPC: 4 (Simulation time: 14 hr 18 min 26 sec)
Heartbeat CPU 2 instructions: 1980000040 cycles: 495017250 heartbeat IPC: 4 cumulative IPC: 4 (Simulation time: 14 hr 18 min 26 sec)
*** Reached end of trace: (2, "traces/ocean_8t/ocean2.champsimtrace")
Heartbeat CPU 3 instructions: 1990000106 cycles: 497514587 heartbeat IPC: 4 cumulative IPC: 4 (Simulation time: 14 hr 22 min 41 sec)
Heartbeat CPU 2 instructions: 1990000041 cycles: 497517273 heartbeat IPC: 4 cumulative IPC: 4 (Simulation time: 14 hr 22 min 41 sec)
*** Reached end of trace: (3, "traces/ocean_8t/ocean3.champsimtrace")
Heartbeat CPU 3 instructions: 2000000109 cycles: 500014604 heartbeat IPC: 4 cumulative IPC: 4 (Simulation time: 14 hr 26 min 52 sec)
Heartbeat CPU 2 instructions: 2000000041 cycles: 500017273 heartbeat IPC: 4 cumulative IPC: 4 (Simulation time: 14 hr 26 min 52 sec)
Heartbeat CPU 3 instructions: 2010000109 cycles: 502514604 heartbeat IPC: 4 cumulative IPC: 4 (Simulation time: 14 hr 31 min 01 sec)
Heartbeat CPU 2 instructions: 2010000041 cycles: 502517273 heartbeat IPC: 4 cumulative IPC: 4 (Simulation time: 14 hr 31 min 01 sec)
Heartbeat CPU 3 instructions: 2020000109 cycles: 505014604 heartbeat IPC: 4 cumulative IPC: 4 (Simulation time: 14 hr 35 min 18 sec)
Heartbeat CPU 2 instructions: 2020000041 cycles: 505017273 heartbeat IPC: 4 cumulative IPC: 4 (Simulation time: 14 hr 35 min 19 sec)
Heartbeat CPU 3 instructions: 2030000109 cycles: 507514604 heartbeat IPC: 4 cumulative IPC: 4 (Simulation time: 14 hr 39 min 30 sec)
Heartbeat CPU 2 instructions: 2030000041 cycles: 507517273 heartbeat IPC: 4 cumulative IPC: 4 (Simulation time: 14 hr 39 min 30 sec)
*** Reached end of trace: (2, "traces/ocean_8t/ocean2.champsimtrace")
Heartbeat CPU 3 instructions: 2040000109 cycles: 510014604 heartbeat IPC: 4 cumulative IPC: 4 (Simulation time: 14 hr 43 min 43 sec)
Heartbeat CPU 2 instructions: 2040000042 cycles: 510017296 heartbeat IPC: 4 cumulative IPC: 4 (Simulation time: 14 hr 43 min 43 sec)
*** Reached end of trace: (3, "traces/ocean_8t/ocean3.champsimtrace")
Heartbeat CPU 1 instructions: 360000042 cycles: 511070772 heartbeat IPC: 0.2551 cumulative IPC: 0.2826 (Simulation time: 14 hr 45 min 30 sec)
Heartbeat CPU 3 instructions: 2050000112 cycles: 512514621 heartbeat IPC: 4 cumulative IPC: 4 (Simulation time: 14 hr 47 min 57 sec)
Heartbeat CPU 2 instructions: 2050000042 cycles: 512517296 heartbeat IPC: 4 cumulative IPC: 4 (Simulation time: 14 hr 47 min 58 sec)
Heartbeat CPU 3 instructions: 2060000112 cycles: 515014621 heartbeat IPC: 4 cumulative IPC: 4 (Simulation time: 14 hr 52 min 04 sec)
Heartbeat CPU 2 instructions: 2060000042 cycles: 515017296 heartbeat IPC: 4 cumulative IPC: 4 (Simulation time: 14 hr 52 min 04 sec)
Heartbeat CPU 3 instructions: 2070000112 cycles: 517514621 heartbeat IPC: 4 cumulative IPC: 4 (Simulation time: 14 hr 56 min 24 sec)
Heartbeat CPU 2 instructions: 2070000042 cycles: 517517296 heartbeat IPC: 4 cumulative IPC: 4 (Simulation time: 14 hr 56 min 25 sec)
Heartbeat CPU 0 instructions: 120000023 cycles: 518552747 heartbeat IPC: 0.1435 cumulative IPC: 0.1699 (Simulation time: 14 hr 58 min 04 sec)
*** Reached end of trace: (2, "traces/ocean_8t/ocean2.champsimtrace")
Heartbeat CPU 3 instructions: 2080000112 cycles: 520014621 heartbeat IPC: 4 cumulative IPC: 4 (Simulation time: 15 hr 00 min 32 sec)
Heartbeat CPU 2 instructions: 2080000043 cycles: 520017319 heartbeat IPC: 4 cumulative IPC: 4 (Simulation time: 15 hr 00 min 33 sec)
*** Reached end of trace: (3, "traces/ocean_8t/ocean3.champsimtrace")
Heartbeat CPU 3 instructions: 2090000115 cycles: 522514638 heartbeat IPC: 4 cumulative IPC: 4 (Simulation time: 15 hr 04 min 35 sec)
Heartbeat CPU 2 instructions: 2090000043 cycles: 522517319 heartbeat IPC: 4 cumulative IPC: 4 (Simulation time: 15 hr 04 min 35 sec)
Heartbeat CPU 3 instructions: 2100000115 cycles: 525014638 heartbeat IPC: 4 cumulative IPC: 4 (Simulation time: 15 hr 08 min 28 sec)
Heartbeat CPU 2 instructions: 2100000043 cycles: 525017319 heartbeat IPC: 4 cumulative IPC: 4 (Simulation time: 15 hr 08 min 28 sec)
*** Reached end of trace: (1, "traces/ocean_8t/ocean1.champsimtrace")
Heartbeat CPU 3 instructions: 2110000115 cycles: 527514638 heartbeat IPC: 4 cumulative IPC: 4 (Simulation time: 15 hr 12 min 24 sec)
Heartbeat CPU 2 instructions: 2110000043 cycles: 527517319 heartbeat IPC: 4 cumulative IPC: 4 (Simulation time: 15 hr 12 min 24 sec)
Heartbeat CPU 3 instructions: 2120000115 cycles: 530014638 heartbeat IPC: 4 cumulative IPC: 4 (Simulation time: 15 hr 16 min 23 sec)
Heartbeat CPU 2 instructions: 2120000043 cycles: 530017319 heartbeat IPC: 4 cumulative IPC: 4 (Simulation time: 15 hr 16 min 23 sec)
*** Reached end of trace: (2, "traces/ocean_8t/ocean2.champsimtrace")
Heartbeat CPU 3 instructions: 2130000115 cycles: 532514638 heartbeat IPC: 4 cumulative IPC: 4 (Simulation time: 15 hr 20 min 21 sec)
Heartbeat CPU 2 instructions: 2130000044 cycles: 532517342 heartbeat IPC: 4 cumulative IPC: 4 (Simulation time: 15 hr 20 min 22 sec)
*** Reached end of trace: (3, "traces/ocean_8t/ocean3.champsimtrace")
Heartbeat CPU 3 instructions: 2140000118 cycles: 535014655 heartbeat IPC: 4 cumulative IPC: 4 (Simulation time: 15 hr 24 min 12 sec)
Heartbeat CPU 2 instructions: 2140000044 cycles: 535017342 heartbeat IPC: 4 cumulative IPC: 4 (Simulation time: 15 hr 24 min 12 sec)
Heartbeat CPU 3 instructions: 2150000118 cycles: 537514655 heartbeat IPC: 4 cumulative IPC: 4 (Simulation time: 15 hr 28 min 17 sec)
Heartbeat CPU 2 instructions: 2150000044 cycles: 537517342 heartbeat IPC: 4 cumulative IPC: 4 (Simulation time: 15 hr 28 min 18 sec)
Heartbeat CPU 1 instructions: 370000044 cycles: 539013540 heartbeat IPC: 0.3579 cumulative IPC: 0.2874 (Simulation time: 15 hr 30 min 56 sec)
Heartbeat CPU 3 instructions: 2160000118 cycles: 540014655 heartbeat IPC: 4 cumulative IPC: 4 (Simulation time: 15 hr 32 min 42 sec)
Heartbeat CPU 2 instructions: 2160000044 cycles: 540017342 heartbeat IPC: 4 cumulative IPC: 4 (Simulation time: 15 hr 32 min 43 sec)
*** Reached end of trace: (2, "traces/ocean_8t/ocean2.champsimtrace")
Heartbeat CPU 3 instructions: 2170000118 cycles: 542514655 heartbeat IPC: 4 cumulative IPC: 4 (Simulation time: 15 hr 36 min 57 sec)
Heartbeat CPU 2 instructions: 2170000045 cycles: 542517365 heartbeat IPC: 4 cumulative IPC: 4 (Simulation time: 15 hr 36 min 57 sec)
*** Reached end of trace: (3, "traces/ocean_8t/ocean3.champsimtrace")
Heartbeat CPU 3 instructions: 2180000121 cycles: 545014672 heartbeat IPC: 4 cumulative IPC: 4 (Simulation time: 15 hr 41 min 01 sec)
Heartbeat CPU 2 instructions: 2180000045 cycles: 545017365 heartbeat IPC: 4 cumulative IPC: 4 (Simulation time: 15 hr 41 min 01 sec)
Heartbeat CPU 3 instructions: 2190000121 cycles: 547514672 heartbeat IPC: 4 cumulative IPC: 4 (Simulation time: 15 hr 45 min 03 sec)
Heartbeat CPU 2 instructions: 2190000045 cycles: 547517365 heartbeat IPC: 4 cumulative IPC: 4 (Simulation time: 15 hr 45 min 04 sec)
Heartbeat CPU 3 instructions: 2200000121 cycles: 550014672 heartbeat IPC: 4 cumulative IPC: 4 (Simulation time: 15 hr 49 min 04 sec)
Heartbeat CPU 2 instructions: 2200000045 cycles: 550017365 heartbeat IPC: 4 cumulative IPC: 4 (Simulation time: 15 hr 49 min 05 sec)
Heartbeat CPU 3 instructions: 2210000121 cycles: 552514672 heartbeat IPC: 4 cumulative IPC: 4 (Simulation time: 15 hr 53 min 02 sec)
Heartbeat CPU 2 instructions: 2210000045 cycles: 552517365 heartbeat IPC: 4 cumulative IPC: 4 (Simulation time: 15 hr 53 min 03 sec)
*** Reached end of trace: (2, "traces/ocean_8t/ocean2.champsimtrace")
Heartbeat CPU 3 instructions: 2220000121 cycles: 555014672 heartbeat IPC: 4 cumulative IPC: 4 (Simulation time: 15 hr 57 min 06 sec)
Heartbeat CPU 2 instructions: 2220000046 cycles: 555017388 heartbeat IPC: 4 cumulative IPC: 4 (Simulation time: 15 hr 57 min 07 sec)
*** Reached end of trace: (3, "traces/ocean_8t/ocean3.champsimtrace")
Heartbeat CPU 3 instructions: 2230000124 cycles: 557514689 heartbeat IPC: 4 cumulative IPC: 4 (Simulation time: 16 hr 01 min 12 sec)
Heartbeat CPU 2 instructions: 2230000046 cycles: 557517388 heartbeat IPC: 4 cumulative IPC: 4 (Simulation time: 16 hr 01 min 12 sec)
Heartbeat CPU 3 instructions: 2240000124 cycles: 560014689 heartbeat IPC: 4 cumulative IPC: 4 (Simulation time: 16 hr 05 min 15 sec)
Heartbeat CPU 2 instructions: 2240000046 cycles: 560017388 heartbeat IPC: 4 cumulative IPC: 4 (Simulation time: 16 hr 05 min 16 sec)
Heartbeat CPU 3 instructions: 2250000124 cycles: 562514689 heartbeat IPC: 4 cumulative IPC: 4 (Simulation time: 16 hr 09 min 14 sec)
Heartbeat CPU 2 instructions: 2250000046 cycles: 562517388 heartbeat IPC: 4 cumulative IPC: 4 (Simulation time: 16 hr 09 min 14 sec)
*** Reached end of trace: (2, "traces/ocean_8t/ocean2.champsimtrace")
Heartbeat CPU 3 instructions: 2260000124 cycles: 565014689 heartbeat IPC: 4 cumulative IPC: 4 (Simulation time: 16 hr 13 min 19 sec)
Heartbeat CPU 2 instructions: 2260000047 cycles: 565017411 heartbeat IPC: 4 cumulative IPC: 4 (Simulation time: 16 hr 13 min 20 sec)
Heartbeat CPU 3 instructions: 2270000124 cycles: 567514689 heartbeat IPC: 4 cumulative IPC: 4 (Simulation time: 16 hr 17 min 15 sec)
Heartbeat CPU 2 instructions: 2270000047 cycles: 567517411 heartbeat IPC: 4 cumulative IPC: 4 (Simulation time: 16 hr 17 min 15 sec)
*** Reached end of trace: (3, "traces/ocean_8t/ocean3.champsimtrace")
Heartbeat CPU 1 instructions: 380000044 cycles: 569268034 heartbeat IPC: 0.3305 cumulative IPC: 0.2903 (Simulation time: 16 hr 20 min 08 sec)
Heartbeat CPU 3 instructions: 2280000127 cycles: 570014706 heartbeat IPC: 4 cumulative IPC: 4 (Simulation time: 16 hr 21 min 20 sec)
Heartbeat CPU 2 instructions: 2280000047 cycles: 570017411 heartbeat IPC: 4 cumulative IPC: 4 (Simulation time: 16 hr 21 min 20 sec)
Heartbeat CPU 3 instructions: 2290000127 cycles: 572514706 heartbeat IPC: 4 cumulative IPC: 4 (Simulation time: 16 hr 25 min 21 sec)
Heartbeat CPU 2 instructions: 2290000047 cycles: 572517411 heartbeat IPC: 4 cumulative IPC: 4 (Simulation time: 16 hr 25 min 21 sec)
Heartbeat CPU 3 instructions: 2300000127 cycles: 575014706 heartbeat IPC: 4 cumulative IPC: 4 (Simulation time: 16 hr 29 min 16 sec)
Heartbeat CPU 2 instructions: 2300000047 cycles: 575017411 heartbeat IPC: 4 cumulative IPC: 4 (Simulation time: 16 hr 29 min 16 sec)
*** Reached end of trace: (2, "traces/ocean_8t/ocean2.champsimtrace")
Heartbeat CPU 3 instructions: 2310000127 cycles: 577514706 heartbeat IPC: 4 cumulative IPC: 4 (Simulation time: 16 hr 33 min 13 sec)
Heartbeat CPU 2 instructions: 2310000048 cycles: 577517434 heartbeat IPC: 4 cumulative IPC: 4 (Simulation time: 16 hr 33 min 13 sec)
*** Reached end of trace: (3, "traces/ocean_8t/ocean3.champsimtrace")
Heartbeat CPU 3 instructions: 2320000130 cycles: 580014723 heartbeat IPC: 4 cumulative IPC: 4 (Simulation time: 16 hr 37 min 06 sec)
Heartbeat CPU 2 instructions: 2320000048 cycles: 580017434 heartbeat IPC: 4 cumulative IPC: 4 (Simulation time: 16 hr 37 min 06 sec)
Heartbeat CPU 0 instructions: 130000023 cycles: 581742518 heartbeat IPC: 0.1583 cumulative IPC: 0.1684 (Simulation time: 16 hr 39 min 51 sec)
Heartbeat CPU 3 instructions: 2330000130 cycles: 582514723 heartbeat IPC: 4 cumulative IPC: 4 (Simulation time: 16 hr 41 min 07 sec)
Heartbeat CPU 2 instructions: 2330000048 cycles: 582517434 heartbeat IPC: 4 cumulative IPC: 4 (Simulation time: 16 hr 41 min 07 sec)
Heartbeat CPU 3 instructions: 2340000130 cycles: 585014723 heartbeat IPC: 4 cumulative IPC: 4 (Simulation time: 16 hr 45 min 06 sec)
Heartbeat CPU 2 instructions: 2340000048 cycles: 585017434 heartbeat IPC: 4 cumulative IPC: 4 (Simulation time: 16 hr 45 min 06 sec)
*** Reached end of trace: (2, "traces/ocean_8t/ocean2.champsimtrace")
Heartbeat CPU 3 instructions: 2350000130 cycles: 587514723 heartbeat IPC: 4 cumulative IPC: 4 (Simulation time: 16 hr 49 min 02 sec)
Heartbeat CPU 2 instructions: 2350000049 cycles: 587517457 heartbeat IPC: 4 cumulative IPC: 4 (Simulation time: 16 hr 49 min 02 sec)
Heartbeat CPU 3 instructions: 2360000130 cycles: 590014723 heartbeat IPC: 4 cumulative IPC: 4 (Simulation time: 16 hr 52 min 57 sec)
Heartbeat CPU 2 instructions: 2360000049 cycles: 590017457 heartbeat IPC: 4 cumulative IPC: 4 (Simulation time: 16 hr 52 min 58 sec)
*** Reached end of trace: (3, "traces/ocean_8t/ocean3.champsimtrace")
Heartbeat CPU 3 instructions: 2370000133 cycles: 592514740 heartbeat IPC: 4 cumulative IPC: 4 (Simulation time: 16 hr 56 min 57 sec)
Heartbeat CPU 2 instructions: 2370000049 cycles: 592517457 heartbeat IPC: 4 cumulative IPC: 4 (Simulation time: 16 hr 56 min 57 sec)
[...]
CPU 2 Branch Prediction Accuracy: -% MPKI: 0 Average ROB Occupancy at Mispredict: -
Branch type MPKI
BRANCH_DIRECT_JUMP: 0
BRANCH_INDIRECT: 0
BRANCH_CONDITIONAL: 0
BRANCH_DIRECT_CALL: 0
BRANCH_INDIRECT_CALL: 0
BRANCH_RETURN: 0


CPU 1 cumulative IPC: 0.2905 instructions: 100000002 cycles: 344205078
CPU 1 Branch Prediction Accuracy: -% MPKI: 0 Average ROB Occupancy at Mispredict: -
Branch type MPKI
BRANCH_DIRECT_JUMP: 0
BRANCH_INDIRECT: 0
BRANCH_CONDITIONAL: 0
BRANCH_DIRECT_CALL: 0
BRANCH_INDIRECT_CALL: 0
BRANCH_RETURN: 0


CPU 0 cumulative IPC: 0.1703 instructions: 100000000 cycles: 587215973
CPU 0 Branch Prediction Accuracy: -% MPKI: 0 Average ROB Occupancy at Mispredict: -
Branch type MPKI
BRANCH_DIRECT_JUMP: 0
BRANCH_INDIRECT: 0
BRANCH_CONDITIONAL: 0
BRANCH_DIRECT_CALL: 0
BRANCH_INDIRECT_CALL: 0
BRANCH_RETURN: 0

cpu3->cpu3_STLB TOTAL        ACCESS:        828 HIT:        828 MISS:          0 MSHR_MERGE:          0
cpu3->cpu3_STLB LOAD         ACCESS:        828 HIT:        828 MISS:          0 MSHR_MERGE:          0
cpu3->cpu3_STLB RFO          ACCESS:          0 HIT:          0 MISS:          0 MSHR_MERGE:          0
cpu3->cpu3_STLB PREFETCH     ACCESS:          0 HIT:          0 MISS:          0 MSHR_MERGE:          0
cpu3->cpu3_STLB WRITE        ACCESS:          0 HIT:          0 MISS:          0 MSHR_MERGE:          0
cpu3->cpu3_STLB TRANSLATION  ACCESS:          0 HIT:          0 MISS:          0 MSHR_MERGE:          0
cpu3->cpu3_STLB PREFETCH REQUESTED:          0 ISSUED:          0 USEFUL:          0 USELESS:          0
cpu3->cpu3_STLB AVERAGE MISS LATENCY: - cycles
cpu3_STLB COHERENCE INVALIDATIONS:          0
cpu3_STLB COHERENCE WRITE-HIT OTHER-SHARER EVENTS:          0
cpu3->cpu3_L2C TOTAL        ACCESS:      80915 HIT:      80915 MISS:          0 MSHR_MERGE:          0
cpu3->cpu3_L2C LOAD         ACCESS:      80915 HIT:      80915 MISS:          0 MSHR_MERGE:          0
cpu3->cpu3_L2C RFO          ACCESS:          0 HIT:          0 MISS:          0 MSHR_MERGE:          0
cpu3->cpu3_L2C PREFETCH     ACCESS:          0 HIT:          0 MISS:          0 MSHR_MERGE:          0
cpu3->cpu3_L2C WRITE        ACCESS:          0 HIT:          0 MISS:          0 MSHR_MERGE:          0
cpu3->cpu3_L2C TRANSLATION  ACCESS:          0 HIT:          0 MISS:          0 MSHR_MERGE:          0
cpu3->cpu3_L2C PREFETCH REQUESTED:          0 ISSUED:          0 USEFUL:          0 USELESS:          0
cpu3->cpu3_L2C AVERAGE MISS LATENCY: - cycles
cpu3_L2C COHERENCE INVALIDATIONS:          0
cpu3_L2C COHERENCE WRITE-HIT OTHER-SHARER EVENTS:          0
cpu3->cpu3_L1I TOTAL        ACCESS:  364150404 HIT:  364029876 MISS:     120528 MSHR_MERGE:      39613
cpu3->cpu3_L1I LOAD         ACCESS:  364150404 HIT:  364029876 MISS:     120528 MSHR_MERGE:      39613
cpu3->cpu3_L1I RFO          ACCESS:          0 HIT:          0 MISS:          0 MSHR_MERGE:          0
cpu3->cpu3_L1I PREFETCH     ACCESS:          0 HIT:          0 MISS:          0 MSHR_MERGE:          0
cpu3->cpu3_L1I WRITE        ACCESS:          0 HIT:          0 MISS:          0 MSHR_MERGE:          0
cpu3->cpu3_L1I TRANSLATION  ACCESS:          0 HIT:          0 MISS:          0 MSHR_MERGE:          0
cpu3->cpu3_L1I PREFETCH REQUESTED:          0 ISSUED:          0 USEFUL:          0 USELESS:          0
cpu3->cpu3_L1I AVERAGE MISS LATENCY: 7 cycles
cpu3_L1I COHERENCE INVALIDATIONS:          0
cpu3_L1I COHERENCE WRITE-HIT OTHER-SHARER EVENTS:          0
cpu3_L1D COHERENCE INVALIDATIONS:          0
cpu3_L1D COHERENCE WRITE-HIT OTHER-SHARER EVENTS:          0
cpu3->cpu3_ITLB TOTAL        ACCESS:  291478918 HIT:  291477316 MISS:       1602 MSHR_MERGE:        774
cpu3->cpu3_ITLB LOAD         ACCESS:  291478918 HIT:  291477316 MISS:       1602 MSHR_MERGE:        774
cpu3->cpu3_ITLB RFO          ACCESS:          0 HIT:          0 MISS:          0 MSHR_MERGE:          0
cpu3->cpu3_ITLB PREFETCH     ACCESS:          0 HIT:          0 MISS:          0 MSHR_MERGE:          0
cpu3->cpu3_ITLB WRITE        ACCESS:          0 HIT:          0 MISS:          0 MSHR_MERGE:          0
cpu3->cpu3_ITLB TRANSLATION  ACCESS:          0 HIT:          0 MISS:          0 MSHR_MERGE:          0
cpu3->cpu3_ITLB PREFETCH REQUESTED:          0 ISSUED:          0 USEFUL:          0 USELESS:          0
cpu3->cpu3_ITLB AVERAGE MISS LATENCY: 4 cycles
cpu3_ITLB COHERENCE INVALIDATIONS:          0
cpu3_ITLB COHERENCE WRITE-HIT OTHER-SHARER EVENTS:          0
cpu3_DTLB COHERENCE INVALIDATIONS:          0
cpu3_DTLB COHERENCE WRITE-HIT OTHER-SHARER EVENTS:          0
cpu2->cpu2_STLB TOTAL        ACCESS:        832 HIT:        832 MISS:          0 MSHR_MERGE:          0
cpu2->cpu2_STLB LOAD         ACCESS:        832 HIT:        832 MISS:          0 MSHR_MERGE:          0
cpu2->cpu2_STLB RFO          ACCESS:          0 HIT:          0 MISS:          0 MSHR_MERGE:          0
cpu2->cpu2_STLB PREFETCH     ACCESS:          0 HIT:          0 MISS:          0 MSHR_MERGE:          0
cpu2->cpu2_STLB WRITE        ACCESS:          0 HIT:          0 MISS:          0 MSHR_MERGE:          0
cpu2->cpu2_STLB TRANSLATION  ACCESS:          0 HIT:          0 MISS:          0 MSHR_MERGE:          0
cpu2->cpu2_STLB PREFETCH REQUESTED:          0 ISSUED:          0 USEFUL:          0 USELESS:          0
cpu2->cpu2_STLB AVERAGE MISS LATENCY: - cycles
cpu2_STLB COHERENCE INVALIDATIONS:          0
cpu2_STLB COHERENCE WRITE-HIT OTHER-SHARER EVENTS:          0
cpu2->cpu2_L2C TOTAL        ACCESS:      85951 HIT:      85951 MISS:          0 MSHR_MERGE:          0
cpu2->cpu2_L2C LOAD         ACCESS:      85951 HIT:      85951 MISS:          0 MSHR_MERGE:          0
cpu2->cpu2_L2C RFO          ACCESS:          0 HIT:          0 MISS:          0 MSHR_MERGE:          0
cpu2->cpu2_L2C PREFETCH     ACCESS:          0 HIT:          0 MISS:          0 MSHR_MERGE:          0
cpu2->cpu2_L2C WRITE        ACCESS:          0 HIT:          0 MISS:          0 MSHR_MERGE:          0
cpu2->cpu2_L2C TRANSLATION  ACCESS:          0 HIT:          0 MISS:          0 MSHR_MERGE:          0
cpu2->cpu2_L2C PREFETCH REQUESTED:          0 ISSUED:          0 USEFUL:          0 USELESS:          0
cpu2->cpu2_L2C AVERAGE MISS LATENCY: - cycles
cpu2_L2C COHERENCE INVALIDATIONS:          0
cpu2_L2C COHERENCE WRITE-HIT OTHER-SHARER EVENTS:          0
cpu2->cpu2_L1I TOTAL        ACCESS:  369087997 HIT:  368957955 MISS:     130042 MSHR_MERGE:      44091
cpu2->cpu2_L1I LOAD         ACCESS:  369087997 HIT:  368957955 MISS:     130042 MSHR_MERGE:      44091
cpu2->cpu2_L1I RFO          ACCESS:          0 HIT:          0 MISS:          0 MSHR_MERGE:          0
cpu2->cpu2_L1I PREFETCH     ACCESS:          0 HIT:          0 MISS:          0 MSHR_MERGE:          0
cpu2->cpu2_L1I WRITE        ACCESS:          0 HIT:          0 MISS:          0 MSHR_MERGE:          0
cpu2->cpu2_L1I TRANSLATION  ACCESS:          0 HIT:          0 MISS:          0 MSHR_MERGE:          0
cpu2->cpu2_L1I PREFETCH REQUESTED:          0 ISSUED:          0 USEFUL:          0 USELESS:          0
cpu2->cpu2_L1I AVERAGE MISS LATENCY: 7 cycles
cpu2_L1I COHERENCE INVALIDATIONS:          0
cpu2_L1I COHERENCE WRITE-HIT OTHER-SHARER EVENTS:          0
cpu2_L1D COHERENCE INVALIDATIONS:          0
cpu2_L1D COHERENCE WRITE-HIT OTHER-SHARER EVENTS:          0
cpu2->cpu2_ITLB TOTAL        ACCESS:  291620738 HIT:  291619230 MISS:       1508 MSHR_MERGE:        676
cpu2->cpu2_ITLB LOAD         ACCESS:  291620738 HIT:  291619230 MISS:       1508 MSHR_MERGE:        676
cpu2->cpu2_ITLB RFO          ACCESS:          0 HIT:          0 MISS:          0 MSHR_MERGE:          0
cpu2->cpu2_ITLB PREFETCH     ACCESS:          0 HIT:          0 MISS:          0 MSHR_MERGE:          0
cpu2->cpu2_ITLB WRITE        ACCESS:          0 HIT:          0 MISS:          0 MSHR_MERGE:          0
cpu2->cpu2_ITLB TRANSLATION  ACCESS:          0 HIT:          0 MISS:          0 MSHR_MERGE:          0
cpu2->cpu2_ITLB PREFETCH REQUESTED:          0 ISSUED:          0 USEFUL:          0 USELESS:          0
cpu2->cpu2_ITLB AVERAGE MISS LATENCY: 4 cycles
cpu2_ITLB COHERENCE INVALIDATIONS:          0
cpu2_ITLB COHERENCE WRITE-HIT OTHER-SHARER EVENTS:          0
cpu2_DTLB COHERENCE INVALIDATIONS:          0
cpu2_DTLB COHERENCE WRITE-HIT OTHER-SHARER EVENTS:          0
cpu1->cpu1_STLB TOTAL        ACCESS:     848729 HIT:     818442 MISS:      30287 MSHR_MERGE:          0
cpu1->cpu1_STLB LOAD         ACCESS:     848729 HIT:     818442 MISS:      30287 MSHR_MERGE:          0
cpu1->cpu1_STLB RFO          ACCESS:          0 HIT:          0 MISS:          0 MSHR_MERGE:          0
cpu1->cpu1_STLB PREFETCH     ACCESS:          0 HIT:          0 MISS:          0 MSHR_MERGE:          0
cpu1->cpu1_STLB WRITE        ACCESS:          0 HIT:          0 MISS:          0 MSHR_MERGE:          0
cpu1->cpu1_STLB TRANSLATION  ACCESS:          0 HIT:          0 MISS:          0 MSHR_MERGE:          0
cpu1->cpu1_STLB PREFETCH REQUESTED:          0 ISSUED:          0 USEFUL:          0 USELESS:          0
cpu1->cpu1_STLB AVERAGE MISS LATENCY: 525.7 cycles
cpu1_STLB COHERENCE INVALIDATIONS:          0
cpu1_STLB COHERENCE WRITE-HIT OTHER-SHARER EVENTS:          0
cpu1->cpu1_L2C TOTAL        ACCESS:   12241753 HIT:    4896368 MISS:    7345385 MSHR_MERGE:          0
cpu1->cpu1_L2C LOAD         ACCESS:   12194713 HIT:    4896368 MISS:    7298345 MSHR_MERGE:          0
cpu1->cpu1_L2C RFO          ACCESS:          0 HIT:          0 MISS:          0 MSHR_MERGE:          0
cpu1->cpu1_L2C PREFETCH     ACCESS:          0 HIT:          0 MISS:          0 MSHR_MERGE:          0
cpu1->cpu1_L2C WRITE        ACCESS:          0 HIT:          0 MISS:          0 MSHR_MERGE:          0
cpu1->cpu1_L2C TRANSLATION  ACCESS:      47040 HIT:          0 MISS:      47040 MSHR_MERGE:          0
cpu1->cpu1_L2C PREFETCH REQUESTED:          0 ISSUED:          0 USEFUL:          0 USELESS:          0
cpu1->cpu1_L2C AVERAGE MISS LATENCY: 235.6 cycles
cpu1_L2C COHERENCE INVALIDATIONS:          0
cpu1_L2C COHERENCE WRITE-HIT OTHER-SHARER EVENTS:          0
cpu1->cpu1_L1I TOTAL        ACCESS:   45134138 HIT:   31263887 MISS:   13870251 MSHR_MERGE:    1675538
cpu1->cpu1_L1I LOAD         ACCESS:   45134138 HIT:   31263887 MISS:   13870251 MSHR_MERGE:    1675538
cpu1->cpu1_L1I RFO          ACCESS:          0 HIT:          0 MISS:          0 MSHR_MERGE:          0
cpu1->cpu1_L1I PREFETCH     ACCESS:          0 HIT:          0 MISS:          0 MSHR_MERGE:          0
cpu1->cpu1_L1I WRITE        ACCESS:          0 HIT:          0 MISS:          0 MSHR_MERGE:          0
cpu1->cpu1_L1I TRANSLATION  ACCESS:          0 HIT:          0 MISS:          0 MSHR_MERGE:          0
cpu1->cpu1_L1I PREFETCH REQUESTED:          0 ISSUED:          0 USEFUL:          0 USELESS:          0
cpu1->cpu1_L1I AVERAGE MISS LATENCY: 148.3 cycles
cpu1_L1I COHERENCE INVALIDATIONS:          0
cpu1_L1I COHERENCE WRITE-HIT OTHER-SHARER EVENTS:          0
cpu1->cpu1_L1D TOTAL        ACCESS:      60585 HIT:      13545 MISS:      47040 MSHR_MERGE:          0
cpu1->cpu1_L1D LOAD         ACCESS:          0 HIT:          0 MISS:          0 MSHR_MERGE:          0
cpu1->cpu1_L1D RFO          ACCESS:          0 HIT:          0 MISS:          0 MSHR_MERGE:          0
cpu1->cpu1_L1D PREFETCH     ACCESS:          0 HIT:          0 MISS:          0 MSHR_MERGE:          0
cpu1->cpu1_L1D WRITE        ACCESS:          0 HIT:          0 MISS:          0 MSHR_MERGE:          0
cpu1->cpu1_L1D TRANSLATION  ACCESS:      60585 HIT:      13545 MISS:      47040 MSHR_MERGE:          0
cpu1->cpu1_L1D PREFETCH REQUESTED:          0 ISSUED:          0 USEFUL:          0 USELESS:          0
cpu1->cpu1_L1D AVERAGE MISS LATENCY: 331 cycles
cpu1_L1D COHERENCE INVALIDATIONS:          0
cpu1_L1D COHERENCE WRITE-HIT OTHER-SHARER EVENTS:          0
cpu1->cpu1_ITLB TOTAL        ACCESS:   44349792 HIT:   43464032 MISS:     885760 MSHR_MERGE:      37031
cpu1->cpu1_ITLB LOAD         ACCESS:   44349792 HIT:   43464032 MISS:     885760 MSHR_MERGE:      37031
cpu1->cpu1_ITLB RFO          ACCESS:          0 HIT:          0 MISS:          0 MSHR_MERGE:          0
cpu1->cpu1_ITLB PREFETCH     ACCESS:          0 HIT:          0 MISS:          0 MSHR_MERGE:          0
cpu1->cpu1_ITLB WRITE        ACCESS:          0 HIT:          0 MISS:          0 MSHR_MERGE:          0
cpu1->cpu1_ITLB TRANSLATION  ACCESS:          0 HIT:          0 MISS:          0 MSHR_MERGE:          0
cpu1->cpu1_ITLB PREFETCH REQUESTED:          0 ISSUED:          0 USEFUL:          0 USELESS:          0
cpu1->cpu1_ITLB AVERAGE MISS LATENCY: 22.8 cycles
cpu1_ITLB COHERENCE INVALIDATIONS:          0
cpu1_ITLB COHERENCE WRITE-HIT OTHER-SHARER EVENTS:          0
cpu1_DTLB COHERENCE INVALIDATIONS:          0
cpu1_DTLB COHERENCE WRITE-HIT OTHER-SHARER EVENTS:          0
cpu0->cpu0_STLB TOTAL        ACCESS:    4685554 HIT:    4538021 MISS:     147533 MSHR_MERGE:          0
cpu0->cpu0_STLB LOAD         ACCESS:    4685554 HIT:    4538021 MISS:     147533 MSHR_MERGE:          0
cpu0->cpu0_STLB RFO          ACCESS:          0 HIT:          0 MISS:          0 MSHR_MERGE:          0
cpu0->cpu0_STLB PREFETCH     ACCESS:          0 HIT:          0 MISS:          0 MSHR_MERGE:          0
cpu0->cpu0_STLB WRITE        ACCESS:          0 HIT:          0 MISS:          0 MSHR_MERGE:          0
cpu0->cpu0_STLB TRANSLATION  ACCESS:          0 HIT:          0 MISS:          0 MSHR_MERGE:          0
cpu0->cpu0_STLB PREFETCH REQUESTED:          0 ISSUED:          0 USEFUL:          0 USELESS:          0
cpu0->cpu0_STLB AVERAGE MISS LATENCY: 634 cycles
cpu0_STLB COHERENCE INVALIDATIONS:          0
cpu0_STLB COHERENCE WRITE-HIT OTHER-SHARER EVENTS:          0
cpu0->cpu0_L2C TOTAL        ACCESS:   32524405 HIT:   14833968 MISS:   17690437 MSHR_MERGE:          0
cpu0->cpu0_L2C LOAD         ACCESS:   21195687 HIT:    6712834 MISS:   14482853 MSHR_MERGE:          0
cpu0->cpu0_L2C RFO          ACCESS:    3487447 HIT:     512903 MISS:    2974544 MSHR_MERGE:          0
cpu0->cpu0_L2C PREFETCH     ACCESS:          0 HIT:          0 MISS:          0 MSHR_MERGE:          0
cpu0->cpu0_L2C WRITE        ACCESS:    7569233 HIT:    7568720 MISS:        513 MSHR_MERGE:          0
cpu0->cpu0_L2C TRANSLATION  ACCESS:     272038 HIT:      39511 MISS:     232527 MSHR_MERGE:          0
cpu0->cpu0_L2C PREFETCH REQUESTED:          0 ISSUED:          0 USEFUL:          0 USELESS:          0
cpu0->cpu0_L2C AVERAGE MISS LATENCY: 182.2 cycles
cpu0_L2C COHERENCE INVALIDATIONS:          0
cpu0_L2C COHERENCE WRITE-HIT OTHER-SHARER EVENTS:          0
cpu0->cpu0_L1I TOTAL        ACCESS:   30789200 HIT:   30777428 MISS:      11772 MSHR_MERGE:       5545
cpu0->cpu0_L1I LOAD         ACCESS:   30789200 HIT:   30777428 MISS:      11772 MSHR_MERGE:       5545
cpu0->cpu0_L1I RFO          ACCESS:          0 HIT:          0 MISS:          0 MSHR_MERGE:          0
cpu0->cpu0_L1I PREFETCH     ACCESS:          0 HIT:          0 MISS:          0 MSHR_MERGE:          0
cpu0->cpu0_L1I WRITE        ACCESS:          0 HIT:          0 MISS:          0 MSHR_MERGE:          0
cpu0->cpu0_L1I TRANSLATION  ACCESS:          0 HIT:          0 MISS:          0 MSHR_MERGE:          0
cpu0->cpu0_L1I PREFETCH REQUESTED:          0 ISSUED:          0 USEFUL:          0 USELESS:          0
cpu0->cpu0_L1I AVERAGE MISS LATENCY: 289.7 cycles
cpu0_L1I COHERENCE INVALIDATIONS:          0
cpu0_L1I COHERENCE WRITE-HIT OTHER-SHARER EVENTS:          0
cpu0->cpu0_L1D TOTAL        ACCESS:  102938923 HIT:   74412135 MISS:   28526788 MSHR_MERGE:    3575332
cpu0->cpu0_L1D LOAD         ACCESS:   44333194 HIT:   22345038 MISS:   21988156 MSHR_MERGE:     798130
cpu0->cpu0_L1D RFO          ACCESS:          0 HIT:          0 MISS:          0 MSHR_MERGE:          0
cpu0->cpu0_L1D PREFETCH     ACCESS:          0 HIT:          0 MISS:          0 MSHR_MERGE:          0
cpu0->cpu0_L1D WRITE        ACCESS:   58305487 HIT:   52044732 MISS:    6260755 MSHR_MERGE:    2771363
cpu0->cpu0_L1D TRANSLATION  ACCESS:     300242 HIT:      22365 MISS:     277877 MSHR_MERGE:       5839
cpu0->cpu0_L1D PREFETCH REQUESTED:          0 ISSUED:          0 USEFUL:          0 USELESS:          0
cpu0->cpu0_L1D AVERAGE MISS LATENCY: 137.1 cycles
cpu0_L1D COHERENCE INVALIDATIONS:          0
cpu0_L1D COHERENCE WRITE-HIT OTHER-SHARER EVENTS:          0
cpu0->cpu0_ITLB TOTAL        ACCESS:   28609658 HIT:   28608595 MISS:       1063 MSHR_MERGE:        714
cpu0->cpu0_ITLB LOAD         ACCESS:   28609658 HIT:   28608595 MISS:       1063 MSHR_MERGE:        714
cpu0->cpu0_ITLB RFO          ACCESS:          0 HIT:          0 MISS:          0 MSHR_MERGE:          0
cpu0->cpu0_ITLB PREFETCH     ACCESS:          0 HIT:          0 MISS:          0 MSHR_MERGE:          0
cpu0->cpu0_ITLB WRITE        ACCESS:          0 HIT:          0 MISS:          0 MSHR_MERGE:          0
cpu0->cpu0_ITLB TRANSLATION  ACCESS:          0 HIT:          0 MISS:          0 MSHR_MERGE:          0
cpu0->cpu0_ITLB PREFETCH REQUESTED:          0 ISSUED:          0 USEFUL:          0 USELESS:          0
cpu0->cpu0_ITLB AVERAGE MISS LATENCY: 489.7 cycles
cpu0_ITLB COHERENCE INVALIDATIONS:          0
cpu0_ITLB COHERENCE WRITE-HIT OTHER-SHARER EVENTS:          0
cpu0->cpu0_DTLB TOTAL        ACCESS:   99338883 HIT:   94450420 MISS:    4888463 MSHR_MERGE:     203258
cpu0->cpu0_DTLB LOAD         ACCESS:   99338883 HIT:   94450420 MISS:    4888463 MSHR_MERGE:     203258
cpu0->cpu0_DTLB RFO          ACCESS:          0 HIT:          0 MISS:          0 MSHR_MERGE:          0
cpu0->cpu0_DTLB PREFETCH     ACCESS:          0 HIT:          0 MISS:          0 MSHR_MERGE:          0
cpu0->cpu0_DTLB WRITE        ACCESS:          0 HIT:          0 MISS:          0 MSHR_MERGE:          0
cpu0->cpu0_DTLB TRANSLATION  ACCESS:          0 HIT:          0 MISS:          0 MSHR_MERGE:          0
cpu0->cpu0_DTLB PREFETCH REQUESTED:          0 ISSUED:          0 USEFUL:          0 USELESS:          0
cpu0->cpu0_DTLB AVERAGE MISS LATENCY: 23.96 cycles
cpu0_DTLB COHERENCE INVALIDATIONS:          0
cpu0_DTLB COHERENCE WRITE-HIT OTHER-SHARER EVENTS:          0
cpu0->LLC TOTAL        ACCESS:   24140069 HIT:   14560206 MISS:    9579863 MSHR_MERGE:         95
cpu0->LLC LOAD         ACCESS:   14482833 HIT:    7578180 MISS:    6904653 MSHR_MERGE:         68
cpu0->LLC RFO          ACCESS:    2974542 HIT:     588165 MISS:    2386377 MSHR_MERGE:         27
cpu0->LLC PREFETCH     ACCESS:          0 HIT:          0 MISS:          0 MSHR_MERGE:          0
cpu0->LLC WRITE        ACCESS:    6450167 HIT:    6389466 MISS:      60701 MSHR_MERGE:          0
cpu0->LLC TRANSLATION  ACCESS:     232527 HIT:       4395 MISS:     228132 MSHR_MERGE:          0
cpu0->LLC PREFETCH REQUESTED:          0 ISSUED:          0 USEFUL:          0 USELESS:          0
cpu0->LLC AVERAGE MISS LATENCY: 476.4 cycles
cpu1->LLC TOTAL        ACCESS:    7345385 HIT:    2132399 MISS:    5212986 MSHR_MERGE:         90
cpu1->LLC LOAD         ACCESS:    7298345 HIT:    2132394 MISS:    5165951 MSHR_MERGE:         90
cpu1->LLC RFO          ACCESS:          0 HIT:          0 MISS:          0 MSHR_MERGE:          0
cpu1->LLC PREFETCH     ACCESS:          0 HIT:          0 MISS:          0 MSHR_MERGE:          0
cpu1->LLC WRITE        ACCESS:          0 HIT:          0 MISS:          0 MSHR_MERGE:          0
cpu1->LLC TRANSLATION  ACCESS:      47040 HIT:          5 MISS:      47035 MSHR_MERGE:          0
cpu1->LLC PREFETCH REQUESTED:          0 ISSUED:          0 USEFUL:          0 USELESS:          0
cpu1->LLC AVERAGE MISS LATENCY: 875.5 cycles
LLC COHERENCE INVALIDATIONS:     482899
LLC COHERENCE WRITE-HIT OTHER-SHARER EVENTS:     482899

DRAM Statistics

Channel 0 RQ ROW_BUFFER_HIT:     334521
  ROW_BUFFER_MISS:   14377258
  AVG DBUS CONGESTED CYCLE: 6.739
Channel 0 WQ ROW_BUFFER_HIT:     409169
  ROW_BUFFER_MISS:    3623165
  FULL:          0
Channel 0 REFRESHES ISSUED:      48935

VMEM ALIASED FILLS (cross-CPU shared-page hits): 90775
