[VMEM] WARNING: physical memory size is smaller than virtual memory size.

*** ChampSim Multicore Out-of-Order Simulator ***
Warmup Instructions: 50000000
Simulation Instructions: 100000000
Number of CPUs: 16
Page size: 4096

Off-chip DRAM Size: 16 GiB Channels: 1 Width: 64-bit Data Rate: 3205 MT/s
Heartbeat CPU 4 instructions: 10000001 cycles: 2508565 heartbeat IPC: 3.986 cumulative IPC: 3.986 (Simulation time: 00 hr 17 min 47 sec)
Heartbeat CPU 13 instructions: 10000003 cycles: 2508660 heartbeat IPC: 3.986 cumulative IPC: 3.986 (Simulation time: 00 hr 17 min 47 sec)
Heartbeat CPU 5 instructions: 10000003 cycles: 2508682 heartbeat IPC: 3.986 cumulative IPC: 3.986 (Simulation time: 00 hr 17 min 47 sec)
Heartbeat CPU 12 instructions: 10000001 cycles: 2508754 heartbeat IPC: 3.986 cumulative IPC: 3.986 (Simulation time: 00 hr 17 min 47 sec)
Heartbeat CPU 11 instructions: 10000003 cycles: 2508785 heartbeat IPC: 3.986 cumulative IPC: 3.986 (Simulation time: 00 hr 17 min 47 sec)
Heartbeat CPU 3 instructions: 10000003 cycles: 2508786 heartbeat IPC: 3.986 cumulative IPC: 3.986 (Simulation time: 00 hr 17 min 47 sec)
Heartbeat CPU 14 instructions: 10000000 cycles: 2509012 heartbeat IPC: 3.986 cumulative IPC: 3.986 (Simulation time: 00 hr 17 min 47 sec)
Heartbeat CPU 6 instructions: 10000002 cycles: 2509013 heartbeat IPC: 3.986 cumulative IPC: 3.986 (Simulation time: 00 hr 17 min 47 sec)
Heartbeat CPU 7 instructions: 10000002 cycles: 2509057 heartbeat IPC: 3.986 cumulative IPC: 3.986 (Simulation time: 00 hr 17 min 47 sec)
Heartbeat CPU 15 instructions: 10000003 cycles: 2509122 heartbeat IPC: 3.985 cumulative IPC: 3.985 (Simulation time: 00 hr 17 min 47 sec)
Heartbeat CPU 2 instructions: 10000003 cycles: 2509620 heartbeat IPC: 3.985 cumulative IPC: 3.985 (Simulation time: 00 hr 17 min 48 sec)
Heartbeat CPU 10 instructions: 10000003 cycles: 2509812 heartbeat IPC: 3.984 cumulative IPC: 3.984 (Simulation time: 00 hr 17 min 48 sec)
Heartbeat CPU 1 instructions: 10000001 cycles: 4565297 heartbeat IPC: 2.19 cumulative IPC: 2.19 (Simulation time: 00 hr 31 min 34 sec)
Heartbeat CPU 9 instructions: 10000001 cycles: 4565440 heartbeat IPC: 2.19 cumulative IPC: 2.19 (Simulation time: 00 hr 31 min 34 sec)
Heartbeat CPU 4 instructions: 20000004 cycles: 5008910 heartbeat IPC: 3.999 cumulative IPC: 3.993 (Simulation time: 00 hr 34 min 42 sec)
Heartbeat CPU 13 instructions: 20000006 cycles: 5008995 heartbeat IPC: 3.999 cumulative IPC: 3.993 (Simulation time: 00 hr 34 min 42 sec)
Heartbeat CPU 11 instructions: 20000006 cycles: 5009002 heartbeat IPC: 4 cumulative IPC: 3.993 (Simulation time: 00 hr 34 min 43 sec)
Heartbeat CPU 3 instructions: 20000006 cycles: 5009003 heartbeat IPC: 4 cumulative IPC: 3.993 (Simulation time: 00 hr 34 min 43 sec)
Heartbeat CPU 5 instructions: 20000005 cycles: 5009022 heartbeat IPC: 3.999 cumulative IPC: 3.993 (Simulation time: 00 hr 34 min 43 sec)
Heartbeat CPU 12 instructions: 20000004 cycles: 5009099 heartbeat IPC: 3.999 cumulative IPC: 3.993 (Simulation time: 00 hr 34 min 43 sec)
Heartbeat CPU 14 instructions: 20000001 cycles: 5009229 heartbeat IPC: 4 cumulative IPC: 3.993 (Simulation time: 00 hr 34 min 43 sec)
Heartbeat CPU 6 instructions: 20000005 cycles: 5009233 heartbeat IPC: 4 cumulative IPC: 3.993 (Simulation time: 00 hr 34 min 43 sec)
Heartbeat CPU 7 instructions: 20000003 cycles: 5009278 heartbeat IPC: 4 cumulative IPC: 3.993 (Simulation time: 00 hr 34 min 43 sec)
Heartbeat CPU 15 instructions: 20000003 cycles: 5009340 heartbeat IPC: 4 cumulative IPC: 3.993 (Simulation time: 00 hr 34 min 43 sec)
Heartbeat CPU 2 instructions: 20000003 cycles: 5010460 heartbeat IPC: 3.999 cumulative IPC: 3.992 (Simulation time: 00 hr 34 min 43 sec)
Heartbeat CPU 10 instructions: 20000003 cycles: 5010646 heartbeat IPC: 3.999 cumulative IPC: 3.992 (Simulation time: 00 hr 34 min 43 sec)
Heartbeat CPU 4 instructions: 30000004 cycles: 7508910 heartbeat IPC: 4 cumulative IPC: 3.995 (Simulation time: 00 hr 52 min 33 sec)
Heartbeat CPU 13 instructions: 30000006 cycles: 7508995 heartbeat IPC: 4 cumulative IPC: 3.995 (Simulation time: 00 hr 52 min 33 sec)
Heartbeat CPU 11 instructions: 30000006 cycles: 7509002 heartbeat IPC: 4 cumulative IPC: 3.995 (Simulation time: 00 hr 52 min 33 sec)
Heartbeat CPU 3 instructions: 30000006 cycles: 7509003 heartbeat IPC: 4 cumulative IPC: 3.995 (Simulation time: 00 hr 52 min 33 sec)
Heartbeat CPU 5 instructions: 30000005 cycles: 7509022 heartbeat IPC: 4 cumulative IPC: 3.995 (Simulation time: 00 hr 52 min 33 sec)
Heartbeat CPU 12 instructions: 30000004 cycles: 7509099 heartbeat IPC: 4 cumulative IPC: 3.995 (Simulation time: 00 hr 52 min 33 sec)
Heartbeat CPU 14 instructions: 30000001 cycles: 7509229 heartbeat IPC: 4 cumulative IPC: 3.995 (Simulation time: 00 hr 52 min 33 sec)
Heartbeat CPU 6 instructions: 30000005 cycles: 7509233 heartbeat IPC: 4 cumulative IPC: 3.995 (Simulation time: 00 hr 52 min 33 sec)
Heartbeat CPU 7 instructions: 30000003 cycles: 7509278 heartbeat IPC: 4 cumulative IPC: 3.995 (Simulation time: 00 hr 52 min 33 sec)
Heartbeat CPU 15 instructions: 30000003 cycles: 7509340 heartbeat IPC: 4 cumulative IPC: 3.995 (Simulation time: 00 hr 52 min 33 sec)
Heartbeat CPU 2 instructions: 30000003 cycles: 7510460 heartbeat IPC: 4 cumulative IPC: 3.994 (Simulation time: 00 hr 52 min 34 sec)
Heartbeat CPU 10 instructions: 30000003 cycles: 7510646 heartbeat IPC: 4 cumulative IPC: 3.994 (Simulation time: 00 hr 52 min 34 sec)
Heartbeat CPU 9 instructions: 20000004 cycles: 9008789 heartbeat IPC: 2.251 cumulative IPC: 2.22 (Simulation time: 01 hr 02 min 47 sec)
Heartbeat CPU 1 instructions: 20000001 cycles: 9008796 heartbeat IPC: 2.25 cumulative IPC: 2.22 (Simulation time: 01 hr 02 min 47 sec)
Heartbeat CPU 4 instructions: 40000004 cycles: 10008910 heartbeat IPC: 4 cumulative IPC: 3.996 (Simulation time: 01 hr 09 min 57 sec)
Heartbeat CPU 13 instructions: 40000006 cycles: 10008995 heartbeat IPC: 4 cumulative IPC: 3.996 (Simulation time: 01 hr 09 min 57 sec)
Heartbeat CPU 11 instructions: 40000006 cycles: 10009002 heartbeat IPC: 4 cumulative IPC: 3.996 (Simulation time: 01 hr 09 min 57 sec)
Heartbeat CPU 3 instructions: 40000006 cycles: 10009003 heartbeat IPC: 4 cumulative IPC: 3.996 (Simulation time: 01 hr 09 min 57 sec)
Heartbeat CPU 5 instructions: 40000005 cycles: 10009022 heartbeat IPC: 4 cumulative IPC: 3.996 (Simulation time: 01 hr 09 min 57 sec)
Heartbeat CPU 12 instructions: 40000004 cycles: 10009099 heartbeat IPC: 4 cumulative IPC: 3.996 (Simulation time: 01 hr 09 min 57 sec)
Heartbeat CPU 14 instructions: 40000001 cycles: 10009229 heartbeat IPC: 4 cumulative IPC: 3.996 (Simulation time: 01 hr 09 min 57 sec)
Heartbeat CPU 6 instructions: 40000005 cycles: 10009233 heartbeat IPC: 4 cumulative IPC: 3.996 (Simulation time: 01 hr 09 min 57 sec)
Heartbeat CPU 7 instructions: 40000003 cycles: 10009278 heartbeat IPC: 4 cumulative IPC: 3.996 (Simulation time: 01 hr 09 min 57 sec)
Heartbeat CPU 15 instructions: 40000003 cycles: 10009340 heartbeat IPC: 4 cumulative IPC: 3.996 (Simulation time: 01 hr 09 min 57 sec)
Heartbeat CPU 2 instructions: 40000003 cycles: 10010460 heartbeat IPC: 4 cumulative IPC: 3.996 (Simulation time: 01 hr 09 min 57 sec)
Heartbeat CPU 10 instructions: 40000003 cycles: 10010646 heartbeat IPC: 4 cumulative IPC: 3.996 (Simulation time: 01 hr 09 min 57 sec)
*** Reached end of trace: (2, "/home/harshraj/COALESCE-Hashed-Perceptron-Cache-Replacement-Policy/simulator/traces/ocean_8t/ocean2.champsimtrace")
*** Reached end of trace: (10, "/home/harshraj/COALESCE-Hashed-Perceptron-Cache-Replacement-Policy/simulator/traces/ocean_8t/ocean2.champsimtrace")
*** Reached end of trace: (13, "/home/harshraj/COALESCE-Hashed-Perceptron-Cache-Replacement-Policy/simulator/traces/ocean_8t/ocean5.champsimtrace")
*** Reached end of trace: (5, "/home/harshraj/COALESCE-Hashed-Perceptron-Cache-Replacement-Policy/simulator/traces/ocean_8t/ocean5.champsimtrace")
*** Reached end of trace: (4, "/home/harshraj/COALESCE-Hashed-Perceptron-Cache-Replacement-Policy/simulator/traces/ocean_8t/ocean4.champsimtrace")
*** Reached end of trace: (12, "/home/harshraj/COALESCE-Hashed-Perceptron-Cache-Replacement-Policy/simulator/traces/ocean_8t/ocean4.champsimtrace")
*** Reached end of trace: (14, "/home/harshraj/COALESCE-Hashed-Perceptron-Cache-Replacement-Policy/simulator/traces/ocean_8t/ocean6.champsimtrace")
*** Reached end of trace: (6, "/home/harshraj/COALESCE-Hashed-Perceptron-Cache-Replacement-Policy/simulator/traces/ocean_8t/ocean6.champsimtrace")
*** Reached end of trace: (11, "/home/harshraj/COALESCE-Hashed-Perceptron-Cache-Replacement-Policy/simulator/traces/ocean_8t/ocean3.champsimtrace")
*** Reached end of trace: (3, "/home/harshraj/COALESCE-Hashed-Perceptron-Cache-Replacement-Policy/simulator/traces/ocean_8t/ocean3.champsimtrace")
*** Reached end of trace: (7, "/home/harshraj/COALESCE-Hashed-Perceptron-Cache-Replacement-Policy/simulator/traces/ocean_8t/ocean7.champsimtrace")
*** Reached end of trace: (15, "/home/harshraj/COALESCE-Hashed-Perceptron-Cache-Replacement-Policy/simulator/traces/ocean_8t/ocean7.champsimtrace")
Warmup finished CPU 4 instructions: 50000002 cycles: 12510913 cumulative IPC: 3.997 (Simulation time: 01 hr 27 min 19 sec)
Heartbeat CPU 4 instructions: 50000006 cycles: 12510914 heartbeat IPC: 3.997 cumulative IPC: 3.997 (Simulation time: 01 hr 27 min 19 sec)
Warmup finished CPU 13 instructions: 50000001 cycles: 12510998 cumulative IPC: 3.996 (Simulation time: 01 hr 27 min 19 sec)
Heartbeat CPU 13 instructions: 50000009 cycles: 12511000 heartbeat IPC: 3.997 cumulative IPC: 3.996 (Simulation time: 01 hr 27 min 19 sec)
Warmup finished CPU 11 instructions: 50000000 cycles: 12511003 cumulative IPC: 3.996 (Simulation time: 01 hr 27 min 19 sec)
Warmup finished CPU 3 instructions: 50000000 cycles: 12511004 cumulative IPC: 3.996 (Simulation time: 01 hr 27 min 19 sec)
Heartbeat CPU 11 instructions: 50000008 cycles: 12511005 heartbeat IPC: 3.997 cumulative IPC: 3.996 (Simulation time: 01 hr 27 min 19 sec)
Heartbeat CPU 3 instructions: 50000008 cycles: 12511006 heartbeat IPC: 3.997 cumulative IPC: 3.996 (Simulation time: 01 hr 27 min 19 sec)
Warmup finished CPU 5 instructions: 50000001 cycles: 12511028 cumulative IPC: 3.996 (Simulation time: 01 hr 27 min 19 sec)
Heartbeat CPU 5 instructions: 50000005 cycles: 12511029 heartbeat IPC: 3.997 cumulative IPC: 3.996 (Simulation time: 01 hr 27 min 19 sec)
Warmup finished CPU 12 instructions: 50000002 cycles: 12511102 cumulative IPC: 3.996 (Simulation time: 01 hr 27 min 19 sec)
Heartbeat CPU 12 instructions: 50000006 cycles: 12511103 heartbeat IPC: 3.997 cumulative IPC: 3.996 (Simulation time: 01 hr 27 min 19 sec)
Heartbeat CPU 14 instructions: 50000002 cycles: 12511231 heartbeat IPC: 3.997 cumulative IPC: 3.996 (Simulation time: 01 hr 27 min 19 sec)
Warmup finished CPU 14 instructions: 50000002 cycles: 12511231 cumulative IPC: 3.996 (Simulation time: 01 hr 27 min 19 sec)
Warmup finished CPU 6 instructions: 50000002 cycles: 12511240 cumulative IPC: 3.996 (Simulation time: 01 hr 27 min 19 sec)
Heartbeat CPU 6 instructions: 50000006 cycles: 12511241 heartbeat IPC: 3.997 cumulative IPC: 3.996 (Simulation time: 01 hr 27 min 19 sec)
Heartbeat CPU 7 instructions: 50000003 cycles: 12511258 heartbeat IPC: 3.997 cumulative IPC: 3.996 (Simulation time: 01 hr 27 min 19 sec)
Warmup finished CPU 7 instructions: 50000003 cycles: 12511258 cumulative IPC: 3.996 (Simulation time: 01 hr 27 min 19 sec)
Heartbeat CPU 15 instructions: 50000003 cycles: 12511340 heartbeat IPC: 3.997 cumulative IPC: 3.996 (Simulation time: 01 hr 27 min 19 sec)
Warmup finished CPU 15 instructions: 50000003 cycles: 12511340 cumulative IPC: 3.996 (Simulation time: 01 hr 27 min 19 sec)
Warmup finished CPU 2 instructions: 50000002 cycles: 12512865 cumulative IPC: 3.996 (Simulation time: 01 hr 27 min 19 sec)
Heartbeat CPU 2 instructions: 50000006 cycles: 12512866 heartbeat IPC: 3.996 cumulative IPC: 3.996 (Simulation time: 01 hr 27 min 19 sec)
Warmup finished CPU 10 instructions: 50000002 cycles: 12513048 cumulative IPC: 3.996 (Simulation time: 01 hr 27 min 19 sec)
Heartbeat CPU 10 instructions: 50000006 cycles: 12513049 heartbeat IPC: 3.996 cumulative IPC: 3.996 (Simulation time: 01 hr 27 min 19 sec)
Heartbeat CPU 1 instructions: 30000002 cycles: 14313014 heartbeat IPC: 1.885 cumulative IPC: 2.096 (Simulation time: 01 hr 40 min 00 sec)
Heartbeat CPU 9 instructions: 30000006 cycles: 14313018 heartbeat IPC: 1.885 cumulative IPC: 2.096 (Simulation time: 01 hr 40 min 00 sec)
Heartbeat CPU 4 instructions: 60000006 cycles: 15010914 heartbeat IPC: 4 cumulative IPC: 3.997 (Simulation time: 01 hr 44 min 41 sec)
Heartbeat CPU 13 instructions: 60000009 cycles: 15011000 heartbeat IPC: 4 cumulative IPC: 3.997 (Simulation time: 01 hr 44 min 41 sec)
Heartbeat CPU 11 instructions: 60000008 cycles: 15011005 heartbeat IPC: 4 cumulative IPC: 3.997 (Simulation time: 01 hr 44 min 41 sec)
Heartbeat CPU 3 instructions: 60000008 cycles: 15011006 heartbeat IPC: 4 cumulative IPC: 3.997 (Simulation time: 01 hr 44 min 41 sec)
Heartbeat CPU 5 instructions: 60000005 cycles: 15011029 heartbeat IPC: 4 cumulative IPC: 3.997 (Simulation time: 01 hr 44 min 41 sec)
Heartbeat CPU 12 instructions: 60000006 cycles: 15011103 heartbeat IPC: 4 cumulative IPC: 3.997 (Simulation time: 01 hr 44 min 41 sec)
Heartbeat CPU 14 instructions: 60000002 cycles: 15011231 heartbeat IPC: 4 cumulative IPC: 3.997 (Simulation time: 01 hr 44 min 41 sec)
Heartbeat CPU 6 instructions: 60000006 cycles: 15011241 heartbeat IPC: 4 cumulative IPC: 3.997 (Simulation time: 01 hr 44 min 41 sec)
Heartbeat CPU 7 instructions: 60000003 cycles: 15011258 heartbeat IPC: 4 cumulative IPC: 3.997 (Simulation time: 01 hr 44 min 41 sec)
Heartbeat CPU 15 instructions: 60000003 cycles: 15011340 heartbeat IPC: 4 cumulative IPC: 3.997 (Simulation time: 01 hr 44 min 41 sec)
Heartbeat CPU 2 instructions: 60000006 cycles: 15012866 heartbeat IPC: 4 cumulative IPC: 3.997 (Simulation time: 01 hr 44 min 42 sec)
Heartbeat CPU 10 instructions: 60000006 cycles: 15013049 heartbeat IPC: 4 cumulative IPC: 3.997 (Simulation time: 01 hr 44 min 42 sec)
Heartbeat CPU 4 instructions: 70000006 cycles: 17510914 heartbeat IPC: 4 cumulative IPC: 3.998 (Simulation time: 02 hr 02 min 09 sec)
Heartbeat CPU 13 instructions: 70000009 cycles: 17511000 heartbeat IPC: 4 cumulative IPC: 3.997 (Simulation time: 02 hr 02 min 09 sec)
Heartbeat CPU 11 instructions: 70000008 cycles: 17511005 heartbeat IPC: 4 cumulative IPC: 3.997 (Simulation time: 02 hr 02 min 09 sec)
Heartbeat CPU 3 instructions: 70000008 cycles: 17511006 heartbeat IPC: 4 cumulative IPC: 3.997 (Simulation time: 02 hr 02 min 09 sec)
Heartbeat CPU 5 instructions: 70000005 cycles: 17511029 heartbeat IPC: 4 cumulative IPC: 3.997 (Simulation time: 02 hr 02 min 09 sec)
Heartbeat CPU 12 instructions: 70000006 cycles: 17511103 heartbeat IPC: 4 cumulative IPC: 3.997 (Simulation time: 02 hr 02 min 09 sec)
Heartbeat CPU 14 instructions: 70000002 cycles: 17511231 heartbeat IPC: 4 cumulative IPC: 3.997 (Simulation time: 02 hr 02 min 09 sec)
Heartbeat CPU 6 instructions: 70000006 cycles: 17511241 heartbeat IPC: 4 cumulative IPC: 3.997 (Simulation time: 02 hr 02 min 09 sec)
Heartbeat CPU 7 instructions: 70000003 cycles: 17511258 heartbeat IPC: 4 cumulative IPC: 3.997 (Simulation time: 02 hr 02 min 09 sec)
Heartbeat CPU 15 instructions: 70000003 cycles: 17511340 heartbeat IPC: 4 cumulative IPC: 3.997 (Simulation time: 02 hr 02 min 09 sec)
Heartbeat CPU 2 instructions: 70000006 cycles: 17512866 heartbeat IPC: 4 cumulative IPC: 3.997 (Simulation time: 02 hr 02 min 10 sec)
Heartbeat CPU 10 instructions: 70000006 cycles: 17513049 heartbeat IPC: 4 cumulative IPC: 3.997 (Simulation time: 02 hr 02 min 10 sec)
Heartbeat CPU 1 instructions: 40000003 cycles: 18546160 heartbeat IPC: 2.362 cumulative IPC: 2.157 (Simulation time: 02 hr 09 min 43 sec)
Heartbeat CPU 9 instructions: 40000007 cycles: 18546160 heartbeat IPC: 2.362 cumulative IPC: 2.157 (Simulation time: 02 hr 09 min 43 sec)
Heartbeat CPU 4 instructions: 80000006 cycles: 20010914 heartbeat IPC: 4 cumulative IPC: 3.998 (Simulation time: 02 hr 19 min 26 sec)
Heartbeat CPU 13 instructions: 80000009 cycles: 20011000 heartbeat IPC: 4 cumulative IPC: 3.998 (Simulation time: 02 hr 19 min 26 sec)
Heartbeat CPU 11 instructions: 80000008 cycles: 20011005 heartbeat IPC: 4 cumulative IPC: 3.998 (Simulation time: 02 hr 19 min 26 sec)
Heartbeat CPU 3 instructions: 80000008 cycles: 20011006 heartbeat IPC: 4 cumulative IPC: 3.998 (Simulation time: 02 hr 19 min 26 sec)
Heartbeat CPU 5 instructions: 80000005 cycles: 20011029 heartbeat IPC: 4 cumulative IPC: 3.998 (Simulation time: 02 hr 19 min 26 sec)
Heartbeat CPU 12 instructions: 80000006 cycles: 20011103 heartbeat IPC: 4 cumulative IPC: 3.998 (Simulation time: 02 hr 19 min 26 sec)
Heartbeat CPU 14 instructions: 80000002 cycles: 20011231 heartbeat IPC: 4 cumulative IPC: 3.998 (Simulation time: 02 hr 19 min 26 sec)
Heartbeat CPU 6 instructions: 80000006 cycles: 20011241 heartbeat IPC: 4 cumulative IPC: 3.998 (Simulation time: 02 hr 19 min 26 sec)
Heartbeat CPU 7 instructions: 80000003 cycles: 20011258 heartbeat IPC: 4 cumulative IPC: 3.998 (Simulation time: 02 hr 19 min 26 sec)
Heartbeat CPU 15 instructions: 80000003 cycles: 20011340 heartbeat IPC: 4 cumulative IPC: 3.998 (Simulation time: 02 hr 19 min 26 sec)
Heartbeat CPU 2 instructions: 80000006 cycles: 20012866 heartbeat IPC: 4 cumulative IPC: 3.997 (Simulation time: 02 hr 19 min 26 sec)
Heartbeat CPU 10 instructions: 80000006 cycles: 20013049 heartbeat IPC: 4 cumulative IPC: 3.997 (Simulation time: 02 hr 19 min 26 sec)
*** Reached end of trace: (9, "/home/harshraj/COALESCE-Hashed-Perceptron-Cache-Replacement-Policy/simulator/traces/ocean_8t/ocean1.champsimtrace")
*** Reached end of trace: (1, "/home/harshraj/COALESCE-Hashed-Perceptron-Cache-Replacement-Policy/simulator/traces/ocean_8t/ocean1.champsimtrace")
Heartbeat CPU 8 instructions: 10000000 cycles: 20614138 heartbeat IPC: 0.4851 cumulative IPC: 0.4851 (Simulation time: 02 hr 24 min 13 sec)
Heartbeat CPU 0 instructions: 10000000 cycles: 20614376 heartbeat IPC: 0.4851 cumulative IPC: 0.4851 (Simulation time: 02 hr 24 min 13 sec)
Warmup finished CPU 1 instructions: 50000000 cycles: 22421231 cumulative IPC: 2.23 (Simulation time: 02 hr 36 min 52 sec)
Heartbeat CPU 1 instructions: 50000004 cycles: 22421232 heartbeat IPC: 2.581 cumulative IPC: 2.23 (Simulation time: 02 hr 36 min 52 sec)
Warmup finished CPU 9 instructions: 50000002 cycles: 22421253 cumulative IPC: 2.23 (Simulation time: 02 hr 36 min 52 sec)
Heartbeat CPU 9 instructions: 50000010 cycles: 22421256 heartbeat IPC: 2.581 cumulative IPC: 2.23 (Simulation time: 02 hr 36 min 52 sec)
Heartbeat CPU 4 instructions: 90000006 cycles: 22510914 heartbeat IPC: 4 cumulative IPC: 3.998 (Simulation time: 02 hr 37 min 30 sec)
Heartbeat CPU 13 instructions: 90000009 cycles: 22511000 heartbeat IPC: 4 cumulative IPC: 3.998 (Simulation time: 02 hr 37 min 30 sec)
Heartbeat CPU 11 instructions: 90000008 cycles: 22511005 heartbeat IPC: 4 cumulative IPC: 3.998 (Simulation time: 02 hr 37 min 30 sec)
Heartbeat CPU 3 instructions: 90000008 cycles: 22511006 heartbeat IPC: 4 cumulative IPC: 3.998 (Simulation time: 02 hr 37 min 30 sec)
Heartbeat CPU 5 instructions: 90000005 cycles: 22511029 heartbeat IPC: 4 cumulative IPC: 3.998 (Simulation time: 02 hr 37 min 30 sec)
Heartbeat CPU 12 instructions: 90000006 cycles: 22511103 heartbeat IPC: 4 cumulative IPC: 3.998 (Simulation time: 02 hr 37 min 30 sec)
Heartbeat CPU 14 instructions: 90000002 cycles: 22511231 heartbeat IPC: 4 cumulative IPC: 3.998 (Simulation time: 02 hr 37 min 30 sec)
Heartbeat CPU 6 instructions: 90000006 cycles: 22511241 heartbeat IPC: 4 cumulative IPC: 3.998 (Simulation time: 02 hr 37 min 30 sec)
Heartbeat CPU 7 instructions: 90000003 cycles: 22511258 heartbeat IPC: 4 cumulative IPC: 3.998 (Simulation time: 02 hr 37 min 30 sec)
Heartbeat CPU 15 instructions: 90000003 cycles: 22511340 heartbeat IPC: 4 cumulative IPC: 3.998 (Simulation time: 02 hr 37 min 30 sec)
Heartbeat CPU 2 instructions: 90000006 cycles: 22512866 heartbeat IPC: 4 cumulative IPC: 3.998 (Simulation time: 02 hr 37 min 31 sec)
Heartbeat CPU 10 instructions: 90000006 cycles: 22513049 heartbeat IPC: 4 cumulative IPC: 3.998 (Simulation time: 02 hr 37 min 31 sec)
*** Reached end of trace: (2, "/home/harshraj/COALESCE-Hashed-Perceptron-Cache-Replacement-Policy/simulator/traces/ocean_8t/ocean2.champsimtrace")
*** Reached end of trace: (10, "/home/harshraj/COALESCE-Hashed-Perceptron-Cache-Replacement-Policy/simulator/traces/ocean_8t/ocean2.champsimtrace")
*** Reached end of trace: (13, "/home/harshraj/COALESCE-Hashed-Perceptron-Cache-Replacement-Policy/simulator/traces/ocean_8t/ocean5.champsimtrace")
*** Reached end of trace: (5, "/home/harshraj/COALESCE-Hashed-Perceptron-Cache-Replacement-Policy/simulator/traces/ocean_8t/ocean5.champsimtrace")
*** Reached end of trace: (4, "/home/harshraj/COALESCE-Hashed-Perceptron-Cache-Replacement-Policy/simulator/traces/ocean_8t/ocean4.champsimtrace")
*** Reached end of trace: (12, "/home/harshraj/COALESCE-Hashed-Perceptron-Cache-Replacement-Policy/simulator/traces/ocean_8t/ocean4.champsimtrace")
*** Reached end of trace: (14, "/home/harshraj/COALESCE-Hashed-Perceptron-Cache-Replacement-Policy/simulator/traces/ocean_8t/ocean6.champsimtrace")
*** Reached end of trace: (6, "/home/harshraj/COALESCE-Hashed-Perceptron-Cache-Replacement-Policy/simulator/traces/ocean_8t/ocean6.champsimtrace")
*** Reached end of trace: (11, "/home/harshraj/COALESCE-Hashed-Perceptron-Cache-Replacement-Policy/simulator/traces/ocean_8t/ocean3.champsimtrace")
*** Reached end of trace: (3, "/home/harshraj/COALESCE-Hashed-Perceptron-Cache-Replacement-Policy/simulator/traces/ocean_8t/ocean3.champsimtrace")
*** Reached end of trace: (7, "/home/harshraj/COALESCE-Hashed-Perceptron-Cache-Replacement-Policy/simulator/traces/ocean_8t/ocean7.champsimtrace")
*** Reached end of trace: (15, "/home/harshraj/COALESCE-Hashed-Perceptron-Cache-Replacement-Policy/simulator/traces/ocean_8t/ocean7.champsimtrace")
Heartbeat CPU 4 instructions: 100000006 cycles: 25010914 heartbeat IPC: 4 cumulative IPC: 3.998 (Simulation time: 02 hr 54 min 35 sec)
Heartbeat CPU 13 instructions: 100000009 cycles: 25011000 heartbeat IPC: 4 cumulative IPC: 3.998 (Simulation time: 02 hr 54 min 35 sec)
Heartbeat CPU 11 instructions: 100000008 cycles: 25011005 heartbeat IPC: 4 cumulative IPC: 3.998 (Simulation time: 02 hr 54 min 35 sec)
Heartbeat CPU 3 instructions: 100000008 cycles: 25011006 heartbeat IPC: 4 cumulative IPC: 3.998 (Simulation time: 02 hr 54 min 35 sec)
Heartbeat CPU 5 instructions: 100000005 cycles: 25011029 heartbeat IPC: 4 cumulative IPC: 3.998 (Simulation time: 02 hr 54 min 35 sec)
Heartbeat CPU 12 instructions: 100000006 cycles: 25011103 heartbeat IPC: 4 cumulative IPC: 3.998 (Simulation time: 02 hr 54 min 35 sec)
Heartbeat CPU 14 instructions: 100000002 cycles: 25011231 heartbeat IPC: 4 cumulative IPC: 3.998 (Simulation time: 02 hr 54 min 35 sec)
Heartbeat CPU 6 instructions: 100000006 cycles: 25011241 heartbeat IPC: 4 cumulative IPC: 3.998 (Simulation time: 02 hr 54 min 35 sec)
Heartbeat CPU 7 instructions: 100000003 cycles: 25011258 heartbeat IPC: 4 cumulative IPC: 3.998 (Simulation time: 02 hr 54 min 35 sec)
Heartbeat CPU 15 instructions: 100000003 cycles: 25011340 heartbeat IPC: 4 cumulative IPC: 3.998 (Simulation time: 02 hr 54 min 35 sec)
Heartbeat CPU 2 instructions: 100000006 cycles: 25012866 heartbeat IPC: 4 cumulative IPC: 3.998 (Simulation time: 02 hr 54 min 36 sec)
Heartbeat CPU 10 instructions: 100000006 cycles: 25013049 heartbeat IPC: 4 cumulative IPC: 3.998 (Simulation time: 02 hr 54 min 36 sec)
Heartbeat CPU 1 instructions: 60000005 cycles: 26523146 heartbeat IPC: 2.438 cumulative IPC: 2.262 (Simulation time: 03 hr 05 min 13 sec)
Heartbeat CPU 9 instructions: 60000013 cycles: 26523150 heartbeat IPC: 2.438 cumulative IPC: 2.262 (Simulation time: 03 hr 05 min 13 sec)
Heartbeat CPU 4 instructions: 110000006 cycles: 27510914 heartbeat IPC: 4 cumulative IPC: 3.998 (Simulation time: 03 hr 12 min 28 sec)
Heartbeat CPU 13 instructions: 110000009 cycles: 27511000 heartbeat IPC: 4 cumulative IPC: 3.998 (Simulation time: 03 hr 12 min 28 sec)
Heartbeat CPU 11 instructions: 110000008 cycles: 27511005 heartbeat IPC: 4 cumulative IPC: 3.998 (Simulation time: 03 hr 12 min 28 sec)
Heartbeat CPU 3 instructions: 110000008 cycles: 27511006 heartbeat IPC: 4 cumulative IPC: 3.998 (Simulation time: 03 hr 12 min 28 sec)
Heartbeat CPU 5 instructions: 110000005 cycles: 27511029 heartbeat IPC: 4 cumulative IPC: 3.998 (Simulation time: 03 hr 12 min 28 sec)
Heartbeat CPU 12 instructions: 110000006 cycles: 27511103 heartbeat IPC: 4 cumulative IPC: 3.998 (Simulation time: 03 hr 12 min 28 sec)
Heartbeat CPU 14 instructions: 110000002 cycles: 27511231 heartbeat IPC: 4 cumulative IPC: 3.998 (Simulation time: 03 hr 12 min 28 sec)
Heartbeat CPU 6 instructions: 110000006 cycles: 27511241 heartbeat IPC: 4 cumulative IPC: 3.998 (Simulation time: 03 hr 12 min 28 sec)
Heartbeat CPU 7 instructions: 110000003 cycles: 27511258 heartbeat IPC: 4 cumulative IPC: 3.998 (Simulation time: 03 hr 12 min 28 sec)
Heartbeat CPU 15 instructions: 110000003 cycles: 27511340 heartbeat IPC: 4 cumulative IPC: 3.998 (Simulation time: 03 hr 12 min 28 sec)
Heartbeat CPU 2 instructions: 110000006 cycles: 27512866 heartbeat IPC: 4 cumulative IPC: 3.998 (Simulation time: 03 hr 12 min 29 sec)
Heartbeat CPU 10 instructions: 110000006 cycles: 27513049 heartbeat IPC: 4 cumulative IPC: 3.998 (Simulation time: 03 hr 12 min 29 sec)
Heartbeat CPU 4 instructions: 120000006 cycles: 30010914 heartbeat IPC: 4 cumulative IPC: 3.999 (Simulation time: 03 hr 29 min 38 sec)
Heartbeat CPU 13 instructions: 120000009 cycles: 30011000 heartbeat IPC: 4 cumulative IPC: 3.999 (Simulation time: 03 hr 29 min 38 sec)
Heartbeat CPU 11 instructions: 120000008 cycles: 30011005 heartbeat IPC: 4 cumulative IPC: 3.999 (Simulation time: 03 hr 29 min 38 sec)
Heartbeat CPU 3 instructions: 120000008 cycles: 30011006 heartbeat IPC: 4 cumulative IPC: 3.999 (Simulation time: 03 hr 29 min 38 sec)
Heartbeat CPU 5 instructions: 120000005 cycles: 30011029 heartbeat IPC: 4 cumulative IPC: 3.999 (Simulation time: 03 hr 29 min 38 sec)
Heartbeat CPU 12 instructions: 120000006 cycles: 30011103 heartbeat IPC: 4 cumulative IPC: 3.999 (Simulation time: 03 hr 29 min 38 sec)
Heartbeat CPU 14 instructions: 120000002 cycles: 30011231 heartbeat IPC: 4 cumulative IPC: 3.999 (Simulation time: 03 hr 29 min 38 sec)
Heartbeat CPU 6 instructions: 120000006 cycles: 30011241 heartbeat IPC: 4 cumulative IPC: 3.999 (Simulation time: 03 hr 29 min 38 sec)
Heartbeat CPU 7 instructions: 120000003 cycles: 30011258 heartbeat IPC: 4 cumulative IPC: 3.998 (Simulation time: 03 hr 29 min 38 sec)
Heartbeat CPU 15 instructions: 120000003 cycles: 30011340 heartbeat IPC: 4 cumulative IPC: 3.998 (Simulation time: 03 hr 29 min 38 sec)
Heartbeat CPU 2 instructions: 120000006 cycles: 30012866 heartbeat IPC: 4 cumulative IPC: 3.998 (Simulation time: 03 hr 29 min 39 sec)
Heartbeat CPU 10 instructions: 120000006 cycles: 30013049 heartbeat IPC: 4 cumulative IPC: 3.998 (Simulation time: 03 hr 29 min 39 sec)
Heartbeat CPU 1 instructions: 70000005 cycles: 30691328 heartbeat IPC: 2.399 cumulative IPC: 2.281 (Simulation time: 03 hr 34 min 29 sec)
Heartbeat CPU 9 instructions: 70000013 cycles: 30691329 heartbeat IPC: 2.399 cumulative IPC: 2.281 (Simulation time: 03 hr 34 min 29 sec)
Heartbeat CPU 4 instructions: 130000006 cycles: 32510914 heartbeat IPC: 4 cumulative IPC: 3.999 (Simulation time: 03 hr 46 min 50 sec)
Heartbeat CPU 13 instructions: 130000009 cycles: 32511000 heartbeat IPC: 4 cumulative IPC: 3.999 (Simulation time: 03 hr 46 min 50 sec)
Heartbeat CPU 11 instructions: 130000008 cycles: 32511005 heartbeat IPC: 4 cumulative IPC: 3.999 (Simulation time: 03 hr 46 min 50 sec)
Heartbeat CPU 3 instructions: 130000008 cycles: 32511006 heartbeat IPC: 4 cumulative IPC: 3.999 (Simulation time: 03 hr 46 min 50 sec)
Heartbeat CPU 5 instructions: 130000005 cycles: 32511029 heartbeat IPC: 4 cumulative IPC: 3.999 (Simulation time: 03 hr 46 min 50 sec)
Heartbeat CPU 12 instructions: 130000006 cycles: 32511103 heartbeat IPC: 4 cumulative IPC: 3.999 (Simulation time: 03 hr 46 min 50 sec)
Heartbeat CPU 14 instructions: 130000002 cycles: 32511231 heartbeat IPC: 4 cumulative IPC: 3.999 (Simulation time: 03 hr 46 min 50 sec)
Heartbeat CPU 6 instructions: 130000006 cycles: 32511241 heartbeat IPC: 4 cumulative IPC: 3.999 (Simulation time: 03 hr 46 min 50 sec)
Heartbeat CPU 7 instructions: 130000003 cycles: 32511258 heartbeat IPC: 4 cumulative IPC: 3.999 (Simulation time: 03 hr 46 min 50 sec)
Heartbeat CPU 15 instructions: 130000003 cycles: 32511340 heartbeat IPC: 4 cumulative IPC: 3.999 (Simulation time: 03 hr 46 min 50 sec)
Heartbeat CPU 2 instructions: 130000006 cycles: 32512866 heartbeat IPC: 4 cumulative IPC: 3.998 (Simulation time: 03 hr 46 min 51 sec)
Heartbeat CPU 10 instructions: 130000006 cycles: 32513049 heartbeat IPC: 4 cumulative IPC: 3.998 (Simulation time: 03 hr 46 min 51 sec)
*** Reached end of trace: (2, "/home/harshraj/COALESCE-Hashed-Perceptron-Cache-Replacement-Policy/simulator/traces/ocean_8t/ocean2.champsimtrace")
*** Reached end of trace: (10, "/home/harshraj/COALESCE-Hashed-Perceptron-Cache-Replacement-Policy/simulator/traces/ocean_8t/ocean2.champsimtrace")
*** Reached end of trace: (13, "/home/harshraj/COALESCE-Hashed-Perceptron-Cache-Replacement-Policy/simulator/traces/ocean_8t/ocean5.champsimtrace")
*** Reached end of trace: (5, "/home/harshraj/COALESCE-Hashed-Perceptron-Cache-Replacement-Policy/simulator/traces/ocean_8t/ocean5.champsimtrace")
*** Reached end of trace: (4, "/home/harshraj/COALESCE-Hashed-Perceptron-Cache-Replacement-Policy/simulator/traces/ocean_8t/ocean4.champsimtrace")
*** Reached end of trace: (12, "/home/harshraj/COALESCE-Hashed-Perceptron-Cache-Replacement-Policy/simulator/traces/ocean_8t/ocean4.champsimtrace")
*** Reached end of trace: (14, "/home/harshraj/COALESCE-Hashed-Perceptron-Cache-Replacement-Policy/simulator/traces/ocean_8t/ocean6.champsimtrace")
*** Reached end of trace: (6, "/home/harshraj/COALESCE-Hashed-Perceptron-Cache-Replacement-Policy/simulator/traces/ocean_8t/ocean6.champsimtrace")
*** Reached end of trace: (11, "/home/harshraj/COALESCE-Hashed-Perceptron-Cache-Replacement-Policy/simulator/traces/ocean_8t/ocean3.champsimtrace")
*** Reached end of trace: (3, "/home/harshraj/COALESCE-Hashed-Perceptron-Cache-Replacement-Policy/simulator/traces/ocean_8t/ocean3.champsimtrace")
*** Reached end of trace: (7, "/home/harshraj/COALESCE-Hashed-Perceptron-Cache-Replacement-Policy/simulator/traces/ocean_8t/ocean7.champsimtrace")
*** Reached end of trace: (15, "/home/harshraj/COALESCE-Hashed-Perceptron-Cache-Replacement-Policy/simulator/traces/ocean_8t/ocean7.champsimtrace")
Heartbeat CPU 4 instructions: 140000006 cycles: 35010914 heartbeat IPC: 4 cumulative IPC: 3.999 (Simulation time: 04 hr 03 min 04 sec)
Heartbeat CPU 13 instructions: 140000009 cycles: 35011000 heartbeat IPC: 4 cumulative IPC: 3.999 (Simulation time: 04 hr 03 min 04 sec)
Heartbeat CPU 11 instructions: 140000008 cycles: 35011005 heartbeat IPC: 4 cumulative IPC: 3.999 (Simulation time: 04 hr 03 min 04 sec)
Heartbeat CPU 3 instructions: 140000008 cycles: 35011006 heartbeat IPC: 4 cumulative IPC: 3.999 (Simulation time: 04 hr 03 min 04 sec)
Heartbeat CPU 5 instructions: 140000005 cycles: 35011029 heartbeat IPC: 4 cumulative IPC: 3.999 (Simulation time: 04 hr 03 min 04 sec)
Heartbeat CPU 12 instructions: 140000006 cycles: 35011103 heartbeat IPC: 4 cumulative IPC: 3.999 (Simulation time: 04 hr 03 min 04 sec)
Heartbeat CPU 14 instructions: 140000002 cycles: 35011231 heartbeat IPC: 4 cumulative IPC: 3.999 (Simulation time: 04 hr 03 min 04 sec)
Heartbeat CPU 6 instructions: 140000006 cycles: 35011241 heartbeat IPC: 4 cumulative IPC: 3.999 (Simulation time: 04 hr 03 min 04 sec)
Heartbeat CPU 7 instructions: 140000003 cycles: 35011258 heartbeat IPC: 4 cumulative IPC: 3.999 (Simulation time: 04 hr 03 min 04 sec)
Heartbeat CPU 15 instructions: 140000003 cycles: 35011340 heartbeat IPC: 4 cumulative IPC: 3.999 (Simulation time: 04 hr 03 min 04 sec)
Heartbeat CPU 2 instructions: 140000006 cycles: 35012866 heartbeat IPC: 4 cumulative IPC: 3.999 (Simulation time: 04 hr 03 min 05 sec)
Heartbeat CPU 10 instructions: 140000006 cycles: 35013049 heartbeat IPC: 4 cumulative IPC: 3.999 (Simulation time: 04 hr 03 min 05 sec)
Heartbeat CPU 1 instructions: 80000005 cycles: 36246753 heartbeat IPC: 1.8 cumulative IPC: 2.207 (Simulation time: 04 hr 11 min 57 sec)
Heartbeat CPU 9 instructions: 80000013 cycles: 36246754 heartbeat IPC: 1.8 cumulative IPC: 2.207 (Simulation time: 04 hr 11 min 57 sec)
Heartbeat CPU 4 instructions: 150000006 cycles: 37510914 heartbeat IPC: 4 cumulative IPC: 3.999 (Simulation time: 04 hr 21 min 09 sec)
Heartbeat CPU 13 instructions: 150000009 cycles: 37511000 heartbeat IPC: 4 cumulative IPC: 3.999 (Simulation time: 04 hr 21 min 09 sec)
Heartbeat CPU 11 instructions: 150000008 cycles: 37511005 heartbeat IPC: 4 cumulative IPC: 3.999 (Simulation time: 04 hr 21 min 09 sec)
Heartbeat CPU 3 instructions: 150000008 cycles: 37511006 heartbeat IPC: 4 cumulative IPC: 3.999 (Simulation time: 04 hr 21 min 09 sec)
Heartbeat CPU 5 instructions: 150000005 cycles: 37511029 heartbeat IPC: 4 cumulative IPC: 3.999 (Simulation time: 04 hr 21 min 09 sec)
Heartbeat CPU 12 instructions: 150000006 cycles: 37511103 heartbeat IPC: 4 cumulative IPC: 3.999 (Simulation time: 04 hr 21 min 09 sec)
Heartbeat CPU 14 instructions: 150000002 cycles: 37511231 heartbeat IPC: 4 cumulative IPC: 3.999 (Simulation time: 04 hr 21 min 09 sec)
Heartbeat CPU 6 instructions: 150000006 cycles: 37511241 heartbeat IPC: 4 cumulative IPC: 3.999 (Simulation time: 04 hr 21 min 09 sec)
Heartbeat CPU 7 instructions: 150000003 cycles: 37511258 heartbeat IPC: 4 cumulative IPC: 3.999 (Simulation time: 04 hr 21 min 09 sec)
Heartbeat CPU 15 instructions: 150000003 cycles: 37511340 heartbeat IPC: 4 cumulative IPC: 3.999 (Simulation time: 04 hr 21 min 09 sec)
Heartbeat CPU 2 instructions: 150000006 cycles: 37512866 heartbeat IPC: 4 cumulative IPC: 3.999 (Simulation time: 04 hr 21 min 10 sec)
Heartbeat CPU 10 instructions: 150000006 cycles: 37513049 heartbeat IPC: 4 cumulative IPC: 3.999 (Simulation time: 04 hr 21 min 10 sec)
Heartbeat CPU 1 instructions: 90000008 cycles: 39675190 heartbeat IPC: 2.917 cumulative IPC: 2.268 (Simulation time: 04 hr 35 min 36 sec)
Heartbeat CPU 9 instructions: 90000014 cycles: 39675191 heartbeat IPC: 2.917 cumulative IPC: 2.268 (Simulation time: 04 hr 35 min 36 sec)
Heartbeat CPU 4 instructions: 160000006 cycles: 40010914 heartbeat IPC: 4 cumulative IPC: 3.999 (Simulation time: 04 hr 38 min 02 sec)
Heartbeat CPU 13 instructions: 160000009 cycles: 40011000 heartbeat IPC: 4 cumulative IPC: 3.999 (Simulation time: 04 hr 38 min 02 sec)
Heartbeat CPU 11 instructions: 160000008 cycles: 40011005 heartbeat IPC: 4 cumulative IPC: 3.999 (Simulation time: 04 hr 38 min 02 sec)
Heartbeat CPU 3 instructions: 160000008 cycles: 40011006 heartbeat IPC: 4 cumulative IPC: 3.999 (Simulation time: 04 hr 38 min 02 sec)
Heartbeat CPU 5 instructions: 160000005 cycles: 40011029 heartbeat IPC: 4 cumulative IPC: 3.999 (Simulation time: 04 hr 38 min 02 sec)
Heartbeat CPU 12 instructions: 160000006 cycles: 40011103 heartbeat IPC: 4 cumulative IPC: 3.999 (Simulation time: 04 hr 38 min 02 sec)
Heartbeat CPU 14 instructions: 160000002 cycles: 40011231 heartbeat IPC: 4 cumulative IPC: 3.999 (Simulation time: 04 hr 38 min 02 sec)
Heartbeat CPU 6 instructions: 160000006 cycles: 40011241 heartbeat IPC: 4 cumulative IPC: 3.999 (Simulation time: 04 hr 38 min 02 sec)
Heartbeat CPU 7 instructions: 160000003 cycles: 40011258 heartbeat IPC: 4 cumulative IPC: 3.999 (Simulation time: 04 hr 38 min 02 sec)
Heartbeat CPU 15 instructions: 160000003 cycles: 40011340 heartbeat IPC: 4 cumulative IPC: 3.999 (Simulation time: 04 hr 38 min 02 sec)
Heartbeat CPU 2 instructions: 160000006 cycles: 40012866 heartbeat IPC: 4 cumulative IPC: 3.999 (Simulation time: 04 hr 38 min 03 sec)
Heartbeat CPU 10 instructions: 160000006 cycles: 40013049 heartbeat IPC: 4 cumulative IPC: 3.999 (Simulation time: 04 hr 38 min 03 sec)
*** Reached end of trace: (9, "/home/harshraj/COALESCE-Hashed-Perceptron-Cache-Replacement-Policy/simulator/traces/ocean_8t/ocean1.champsimtrace")
*** Reached end of trace: (1, "/home/harshraj/COALESCE-Hashed-Perceptron-Cache-Replacement-Policy/simulator/traces/ocean_8t/ocean1.champsimtrace")
Heartbeat CPU 8 instructions: 20000001 cycles: 41734786 heartbeat IPC: 0.4735 cumulative IPC: 0.4792 (Simulation time: 04 hr 50 min 07 sec)
Heartbeat CPU 0 instructions: 20000001 cycles: 41735533 heartbeat IPC: 0.4735 cumulative IPC: 0.4792 (Simulation time: 04 hr 50 min 07 sec)
Heartbeat CPU 4 instructions: 170000006 cycles: 42510914 heartbeat IPC: 4 cumulative IPC: 3.999 (Simulation time: 04 hr 55 min 42 sec)
Heartbeat CPU 13 instructions: 170000009 cycles: 42511000 heartbeat IPC: 4 cumulative IPC: 3.999 (Simulation time: 04 hr 55 min 42 sec)
Heartbeat CPU 11 instructions: 170000008 cycles: 42511005 heartbeat IPC: 4 cumulative IPC: 3.999 (Simulation time: 04 hr 55 min 42 sec)
Heartbeat CPU 3 instructions: 170000008 cycles: 42511006 heartbeat IPC: 4 cumulative IPC: 3.999 (Simulation time: 04 hr 55 min 42 sec)
Heartbeat CPU 5 instructions: 170000005 cycles: 42511029 heartbeat IPC: 4 cumulative IPC: 3.999 (Simulation time: 04 hr 55 min 42 sec)
Heartbeat CPU 12 instructions: 170000006 cycles: 42511103 heartbeat IPC: 4 cumulative IPC: 3.999 (Simulation time: 04 hr 55 min 43 sec)
Heartbeat CPU 14 instructions: 170000002 cycles: 42511231 heartbeat IPC: 4 cumulative IPC: 3.999 (Simulation time: 04 hr 55 min 43 sec)
Heartbeat CPU 6 instructions: 170000006 cycles: 42511241 heartbeat IPC: 4 cumulative IPC: 3.999 (Simulation time: 04 hr 55 min 43 sec)
Heartbeat CPU 7 instructions: 170000003 cycles: 42511258 heartbeat IPC: 4 cumulative IPC: 3.999 (Simulation time: 04 hr 55 min 43 sec)
Heartbeat CPU 15 instructions: 170000003 cycles: 42511340 heartbeat IPC: 4 cumulative IPC: 3.999 (Simulation time: 04 hr 55 min 43 sec)
Heartbeat CPU 2 instructions: 170000006 cycles: 42512866 heartbeat IPC: 4 cumulative IPC: 3.999 (Simulation time: 04 hr 55 min 43 sec)
Heartbeat CPU 10 instructions: 170000006 cycles: 42513049 heartbeat IPC: 4 cumulative IPC: 3.999 (Simulation time: 04 hr 55 min 43 sec)
Heartbeat CPU 1 instructions: 100000009 cycles: 43770901 heartbeat IPC: 2.442 cumulative IPC: 2.285 (Simulation time: 05 hr 03 min 03 sec)
Heartbeat CPU 9 instructions: 100000017 cycles: 43771492 heartbeat IPC: 2.441 cumulative IPC: 2.285 (Simulation time: 05 hr 03 min 04 sec)
Heartbeat CPU 4 instructions: 180000006 cycles: 45010914 heartbeat IPC: 4 cumulative IPC: 3.999 (Simulation time: 05 hr 11 min 58 sec)
Heartbeat CPU 13 instructions: 180000009 cycles: 45011000 heartbeat IPC: 4 cumulative IPC: 3.999 (Simulation time: 05 hr 11 min 58 sec)
Heartbeat CPU 11 instructions: 180000008 cycles: 45011005 heartbeat IPC: 4 cumulative IPC: 3.999 (Simulation time: 05 hr 11 min 58 sec)
Heartbeat CPU 3 instructions: 180000008 cycles: 45011006 heartbeat IPC: 4 cumulative IPC: 3.999 (Simulation time: 05 hr 11 min 58 sec)
Heartbeat CPU 5 instructions: 180000005 cycles: 45011029 heartbeat IPC: 4 cumulative IPC: 3.999 (Simulation time: 05 hr 11 min 58 sec)
Heartbeat CPU 12 instructions: 180000006 cycles: 45011103 heartbeat IPC: 4 cumulative IPC: 3.999 (Simulation time: 05 hr 11 min 59 sec)
Heartbeat CPU 14 instructions: 180000002 cycles: 45011231 heartbeat IPC: 4 cumulative IPC: 3.999 (Simulation time: 05 hr 11 min 59 sec)
Heartbeat CPU 6 instructions: 180000006 cycles: 45011241 heartbeat IPC: 4 cumulative IPC: 3.999 (Simulation time: 05 hr 11 min 59 sec)
Heartbeat CPU 7 instructions: 180000003 cycles: 45011258 heartbeat IPC: 4 cumulative IPC: 3.999 (Simulation time: 05 hr 11 min 59 sec)
Heartbeat CPU 15 instructions: 180000003 cycles: 45011340 heartbeat IPC: 4 cumulative IPC: 3.999 (Simulation time: 05 hr 11 min 59 sec)
Heartbeat CPU 2 instructions: 180000006 cycles: 45012866 heartbeat IPC: 4 cumulative IPC: 3.999 (Simulation time: 05 hr 11 min 59 sec)
Heartbeat CPU 10 instructions: 180000006 cycles: 45013049 heartbeat IPC: 4 cumulative IPC: 3.999 (Simulation time: 05 hr 11 min 59 sec)
*** Reached end of trace: (2, "/home/harshraj/COALESCE-Hashed-Perceptron-Cache-Replacement-Policy/simulator/traces/ocean_8t/ocean2.champsimtrace")
*** Reached end of trace: (10, "/home/harshraj/COALESCE-Hashed-Perceptron-Cache-Replacement-Policy/simulator/traces/ocean_8t/ocean2.champsimtrace")
*** Reached end of trace: (13, "/home/harshraj/COALESCE-Hashed-Perceptron-Cache-Replacement-Policy/simulator/traces/ocean_8t/ocean5.champsimtrace")
*** Reached end of trace: (5, "/home/harshraj/COALESCE-Hashed-Perceptron-Cache-Replacement-Policy/simulator/traces/ocean_8t/ocean5.champsimtrace")
*** Reached end of trace: (4, "/home/harshraj/COALESCE-Hashed-Perceptron-Cache-Replacement-Policy/simulator/traces/ocean_8t/ocean4.champsimtrace")
*** Reached end of trace: (12, "/home/harshraj/COALESCE-Hashed-Perceptron-Cache-Replacement-Policy/simulator/traces/ocean_8t/ocean4.champsimtrace")
*** Reached end of trace: (14, "/home/harshraj/COALESCE-Hashed-Perceptron-Cache-Replacement-Policy/simulator/traces/ocean_8t/ocean6.champsimtrace")
*** Reached end of trace: (6, "/home/harshraj/COALESCE-Hashed-Perceptron-Cache-Replacement-Policy/simulator/traces/ocean_8t/ocean6.champsimtrace")
*** Reached end of trace: (11, "/home/harshraj/COALESCE-Hashed-Perceptron-Cache-Replacement-Policy/simulator/traces/ocean_8t/ocean3.champsimtrace")
*** Reached end of trace: (3, "/home/harshraj/COALESCE-Hashed-Perceptron-Cache-Replacement-Policy/simulator/traces/ocean_8t/ocean3.champsimtrace")
*** Reached end of trace: (7, "/home/harshraj/COALESCE-Hashed-Perceptron-Cache-Replacement-Policy/simulator/traces/ocean_8t/ocean7.champsimtrace")
*** Reached end of trace: (15, "/home/harshraj/COALESCE-Hashed-Perceptron-Cache-Replacement-Policy/simulator/traces/ocean_8t/ocean7.champsimtrace")
Heartbeat CPU 4 instructions: 190000006 cycles: 47510914 heartbeat IPC: 4 cumulative IPC: 3.999 (Simulation time: 05 hr 29 min 29 sec)
Heartbeat CPU 13 instructions: 190000009 cycles: 47511000 heartbeat IPC: 4 cumulative IPC: 3.999 (Simulation time: 05 hr 29 min 29 sec)
Heartbeat CPU 11 instructions: 190000008 cycles: 47511005 heartbeat IPC: 4 cumulative IPC: 3.999 (Simulation time: 05 hr 29 min 29 sec)
Heartbeat CPU 3 instructions: 190000008 cycles: 47511006 heartbeat IPC: 4 cumulative IPC: 3.999 (Simulation time: 05 hr 29 min 29 sec)
Heartbeat CPU 5 instructions: 190000005 cycles: 47511029 heartbeat IPC: 4 cumulative IPC: 3.999 (Simulation time: 05 hr 29 min 29 sec)
Heartbeat CPU 12 instructions: 190000006 cycles: 47511103 heartbeat IPC: 4 cumulative IPC: 3.999 (Simulation time: 05 hr 29 min 29 sec)
Heartbeat CPU 14 instructions: 190000002 cycles: 47511231 heartbeat IPC: 4 cumulative IPC: 3.999 (Simulation time: 05 hr 29 min 29 sec)
Heartbeat CPU 6 instructions: 190000006 cycles: 47511241 heartbeat IPC: 4 cumulative IPC: 3.999 (Simulation time: 05 hr 29 min 29 sec)
Heartbeat CPU 7 instructions: 190000003 cycles: 47511258 heartbeat IPC: 4 cumulative IPC: 3.999 (Simulation time: 05 hr 29 min 29 sec)
Heartbeat CPU 15 instructions: 190000003 cycles: 47511340 heartbeat IPC: 4 cumulative IPC: 3.999 (Simulation time: 05 hr 29 min 29 sec)
Heartbeat CPU 2 instructions: 190000006 cycles: 47512866 heartbeat IPC: 4 cumulative IPC: 3.999 (Simulation time: 05 hr 29 min 29 sec)
Heartbeat CPU 10 instructions: 190000006 cycles: 47513049 heartbeat IPC: 4 cumulative IPC: 3.999 (Simulation time: 05 hr 29 min 30 sec)
Heartbeat CPU 1 instructions: 110000010 cycles: 47875617 heartbeat IPC: 2.436 cumulative IPC: 2.298 (Simulation time: 05 hr 32 min 07 sec)
Heartbeat CPU 9 instructions: 110000018 cycles: 47875620 heartbeat IPC: 2.437 cumulative IPC: 2.298 (Simulation time: 05 hr 32 min 07 sec)
Heartbeat CPU 4 instructions: 200000006 cycles: 50010914 heartbeat IPC: 4 cumulative IPC: 3.999 (Simulation time: 05 hr 46 min 53 sec)
Heartbeat CPU 13 instructions: 200000009 cycles: 50011000 heartbeat IPC: 4 cumulative IPC: 3.999 (Simulation time: 05 hr 46 min 53 sec)
Heartbeat CPU 11 instructions: 200000008 cycles: 50011005 heartbeat IPC: 4 cumulative IPC: 3.999 (Simulation time: 05 hr 46 min 53 sec)
Heartbeat CPU 3 instructions: 200000008 cycles: 50011006 heartbeat IPC: 4 cumulative IPC: 3.999 (Simulation time: 05 hr 46 min 53 sec)
Heartbeat CPU 5 instructions: 200000005 cycles: 50011029 heartbeat IPC: 4 cumulative IPC: 3.999 (Simulation time: 05 hr 46 min 53 sec)
Heartbeat CPU 12 instructions: 200000006 cycles: 50011103 heartbeat IPC: 4 cumulative IPC: 3.999 (Simulation time: 05 hr 46 min 53 sec)
Heartbeat CPU 14 instructions: 200000002 cycles: 50011231 heartbeat IPC: 4 cumulative IPC: 3.999 (Simulation time: 05 hr 46 min 53 sec)
Heartbeat CPU 6 instructions: 200000006 cycles: 50011241 heartbeat IPC: 4 cumulative IPC: 3.999 (Simulation time: 05 hr 46 min 53 sec)
Heartbeat CPU 7 instructions: 200000003 cycles: 50011258 heartbeat IPC: 4 cumulative IPC: 3.999 (Simulation time: 05 hr 46 min 53 sec)
Heartbeat CPU 15 instructions: 200000003 cycles: 50011340 heartbeat IPC: 4 cumulative IPC: 3.999 (Simulation time: 05 hr 46 min 53 sec)
Heartbeat CPU 2 instructions: 200000006 cycles: 50012866 heartbeat IPC: 4 cumulative IPC: 3.999 (Simulation time: 05 hr 46 min 54 sec)
Heartbeat CPU 10 instructions: 200000006 cycles: 50013049 heartbeat IPC: 4 cumulative IPC: 3.999 (Simulation time: 05 hr 46 min 54 sec)
Heartbeat CPU 4 instructions: 210000006 cycles: 52510914 heartbeat IPC: 4 cumulative IPC: 3.999 (Simulation time: 06 hr 03 min 02 sec)
Heartbeat CPU 13 instructions: 210000009 cycles: 52511000 heartbeat IPC: 4 cumulative IPC: 3.999 (Simulation time: 06 hr 03 min 02 sec)
Heartbeat CPU 11 instructions: 210000008 cycles: 52511005 heartbeat IPC: 4 cumulative IPC: 3.999 (Simulation time: 06 hr 03 min 02 sec)
Heartbeat CPU 3 instructions: 210000008 cycles: 52511006 heartbeat IPC: 4 cumulative IPC: 3.999 (Simulation time: 06 hr 03 min 02 sec)
Heartbeat CPU 5 instructions: 210000005 cycles: 52511029 heartbeat IPC: 4 cumulative IPC: 3.999 (Simulation time: 06 hr 03 min 02 sec)
Heartbeat CPU 12 instructions: 210000006 cycles: 52511103 heartbeat IPC: 4 cumulative IPC: 3.999 (Simulation time: 06 hr 03 min 02 sec)
Heartbeat CPU 14 instructions: 210000002 cycles: 52511231 heartbeat IPC: 4 cumulative IPC: 3.999 (Simulation time: 06 hr 03 min 02 sec)
Heartbeat CPU 6 instructions: 210000006 cycles: 52511241 heartbeat IPC: 4 cumulative IPC: 3.999 (Simulation time: 06 hr 03 min 02 sec)
Heartbeat CPU 7 instructions: 210000003 cycles: 52511258 heartbeat IPC: 4 cumulative IPC: 3.999 (Simulation time: 06 hr 03 min 02 sec)
Heartbeat CPU 15 instructions: 210000003 cycles: 52511340 heartbeat IPC: 4 cumulative IPC: 3.999 (Simulation time: 06 hr 03 min 02 sec)
Heartbeat CPU 2 instructions: 210000006 cycles: 52512866 heartbeat IPC: 4 cumulative IPC: 3.999 (Simulation time: 06 hr 03 min 03 sec)
Heartbeat CPU 10 instructions: 210000006 cycles: 52513049 heartbeat IPC: 4 cumulative IPC: 3.999 (Simulation time: 06 hr 03 min 03 sec)
Heartbeat CPU 1 instructions: 120000011 cycles: 52804669 heartbeat IPC: 2.029 cumulative IPC: 2.273 (Simulation time: 06 hr 05 min 05 sec)
Heartbeat CPU 9 instructions: 120000018 cycles: 52804681 heartbeat IPC: 2.029 cumulative IPC: 2.273 (Simulation time: 06 hr 05 min 05 sec)
Heartbeat CPU 4 instructions: 220000006 cycles: 55010914 heartbeat IPC: 4 cumulative IPC: 3.999 (Simulation time: 06 hr 20 min 57 sec)
Heartbeat CPU 13 instructions: 220000009 cycles: 55011000 heartbeat IPC: 4 cumulative IPC: 3.999 (Simulation time: 06 hr 20 min 57 sec)
Heartbeat CPU 11 instructions: 220000008 cycles: 55011005 heartbeat IPC: 4 cumulative IPC: 3.999 (Simulation time: 06 hr 20 min 57 sec)
Heartbeat CPU 3 instructions: 220000008 cycles: 55011006 heartbeat IPC: 4 cumulative IPC: 3.999 (Simulation time: 06 hr 20 min 57 sec)
Heartbeat CPU 5 instructions: 220000005 cycles: 55011029 heartbeat IPC: 4 cumulative IPC: 3.999 (Simulation time: 06 hr 20 min 57 sec)
Heartbeat CPU 12 instructions: 220000006 cycles: 55011103 heartbeat IPC: 4 cumulative IPC: 3.999 (Simulation time: 06 hr 20 min 57 sec)
Heartbeat CPU 14 instructions: 220000002 cycles: 55011231 heartbeat IPC: 4 cumulative IPC: 3.999 (Simulation time: 06 hr 20 min 57 sec)
Heartbeat CPU 6 instructions: 220000006 cycles: 55011241 heartbeat IPC: 4 cumulative IPC: 3.999 (Simulation time: 06 hr 20 min 57 sec)
Heartbeat CPU 7 instructions: 220000003 cycles: 55011258 heartbeat IPC: 4 cumulative IPC: 3.999 (Simulation time: 06 hr 20 min 57 sec)
Heartbeat CPU 15 instructions: 220000003 cycles: 55011340 heartbeat IPC: 4 cumulative IPC: 3.999 (Simulation time: 06 hr 20 min 57 sec)
Heartbeat CPU 2 instructions: 220000006 cycles: 55012866 heartbeat IPC: 4 cumulative IPC: 3.999 (Simulation time: 06 hr 20 min 58 sec)
Heartbeat CPU 10 instructions: 220000006 cycles: 55013049 heartbeat IPC: 4 cumulative IPC: 3.999 (Simulation time: 06 hr 20 min 58 sec)
*** Reached end of trace: (2, "/home/harshraj/COALESCE-Hashed-Perceptron-Cache-Replacement-Policy/simulator/traces/ocean_8t/ocean2.champsimtrace")
*** Reached end of trace: (10, "/home/harshraj/COALESCE-Hashed-Perceptron-Cache-Replacement-Policy/simulator/traces/ocean_8t/ocean2.champsimtrace")
*** Reached end of trace: (13, "/home/harshraj/COALESCE-Hashed-Perceptron-Cache-Replacement-Policy/simulator/traces/ocean_8t/ocean5.champsimtrace")
*** Reached end of trace: (5, "/home/harshraj/COALESCE-Hashed-Perceptron-Cache-Replacement-Policy/simulator/traces/ocean_8t/ocean5.champsimtrace")
*** Reached end of trace: (4, "/home/harshraj/COALESCE-Hashed-Perceptron-Cache-Replacement-Policy/simulator/traces/ocean_8t/ocean4.champsimtrace")
*** Reached end of trace: (12, "/home/harshraj/COALESCE-Hashed-Perceptron-Cache-Replacement-Policy/simulator/traces/ocean_8t/ocean4.champsimtrace")
*** Reached end of trace: (14, "/home/harshraj/COALESCE-Hashed-Perceptron-Cache-Replacement-Policy/simulator/traces/ocean_8t/ocean6.champsimtrace")
*** Reached end of trace: (6, "/home/harshraj/COALESCE-Hashed-Perceptron-Cache-Replacement-Policy/simulator/traces/ocean_8t/ocean6.champsimtrace")
*** Reached end of trace: (11, "/home/harshraj/COALESCE-Hashed-Perceptron-Cache-Replacement-Policy/simulator/traces/ocean_8t/ocean3.champsimtrace")
*** Reached end of trace: (3, "/home/harshraj/COALESCE-Hashed-Perceptron-Cache-Replacement-Policy/simulator/traces/ocean_8t/ocean3.champsimtrace")
*** Reached end of trace: (7, "/home/harshraj/COALESCE-Hashed-Perceptron-Cache-Replacement-Policy/simulator/traces/ocean_8t/ocean7.champsimtrace")
*** Reached end of trace: (15, "/home/harshraj/COALESCE-Hashed-Perceptron-Cache-Replacement-Policy/simulator/traces/ocean_8t/ocean7.champsimtrace")
Heartbeat CPU 9 instructions: 130000019 cycles: 57289954 heartbeat IPC: 2.23 cumulative IPC: 2.269 (Simulation time: 06 hr 36 min 47 sec)
Heartbeat CPU 1 instructions: 130000011 cycles: 57289957 heartbeat IPC: 2.23 cumulative IPC: 2.269 (Simulation time: 06 hr 36 min 47 sec)
Heartbeat CPU 4 instructions: 230000006 cycles: 57510914 heartbeat IPC: 4 cumulative IPC: 3.999 (Simulation time: 06 hr 38 min 23 sec)
Heartbeat CPU 13 instructions: 230000009 cycles: 57511000 heartbeat IPC: 4 cumulative IPC: 3.999 (Simulation time: 06 hr 38 min 23 sec)
Heartbeat CPU 11 instructions: 230000008 cycles: 57511005 heartbeat IPC: 4 cumulative IPC: 3.999 (Simulation time: 06 hr 38 min 23 sec)
Heartbeat CPU 3 instructions: 230000008 cycles: 57511006 heartbeat IPC: 4 cumulative IPC: 3.999 (Simulation time: 06 hr 38 min 23 sec)
Heartbeat CPU 5 instructions: 230000005 cycles: 57511029 heartbeat IPC: 4 cumulative IPC: 3.999 (Simulation time: 06 hr 38 min 23 sec)
Heartbeat CPU 12 instructions: 230000006 cycles: 57511103 heartbeat IPC: 4 cumulative IPC: 3.999 (Simulation time: 06 hr 38 min 23 sec)
Heartbeat CPU 14 instructions: 230000002 cycles: 57511231 heartbeat IPC: 4 cumulative IPC: 3.999 (Simulation time: 06 hr 38 min 23 sec)
Heartbeat CPU 6 instructions: 230000006 cycles: 57511241 heartbeat IPC: 4 cumulative IPC: 3.999 (Simulation time: 06 hr 38 min 23 sec)
Heartbeat CPU 7 instructions: 230000003 cycles: 57511258 heartbeat IPC: 4 cumulative IPC: 3.999 (Simulation time: 06 hr 38 min 23 sec)
Heartbeat CPU 15 instructions: 230000003 cycles: 57511340 heartbeat IPC: 4 cumulative IPC: 3.999 (Simulation time: 06 hr 38 min 23 sec)
Heartbeat CPU 2 instructions: 230000006 cycles: 57512866 heartbeat IPC: 4 cumulative IPC: 3.999 (Simulation time: 06 hr 38 min 24 sec)
Heartbeat CPU 10 instructions: 230000006 cycles: 57513049 heartbeat IPC: 4 cumulative IPC: 3.999 (Simulation time: 06 hr 38 min 24 sec)
*** Reached end of trace: (9, "/home/harshraj/COALESCE-Hashed-Perceptron-Cache-Replacement-Policy/simulator/traces/ocean_8t/ocean1.champsimtrace")
*** Reached end of trace: (1, "/home/harshraj/COALESCE-Hashed-Perceptron-Cache-Replacement-Policy/simulator/traces/ocean_8t/ocean1.champsimtrace")
Heartbeat CPU 4 instructions: 240000006 cycles: 60010914 heartbeat IPC: 4 cumulative IPC: 3.999 (Simulation time: 06 hr 56 min 38 sec)
Heartbeat CPU 13 instructions: 240000009 cycles: 60011000 heartbeat IPC: 4 cumulative IPC: 3.999 (Simulation time: 06 hr 56 min 38 sec)
Heartbeat CPU 11 instructions: 240000008 cycles: 60011005 heartbeat IPC: 4 cumulative IPC: 3.999 (Simulation time: 06 hr 56 min 38 sec)
Heartbeat CPU 3 instructions: 240000008 cycles: 60011006 heartbeat IPC: 4 cumulative IPC: 3.999 (Simulation time: 06 hr 56 min 38 sec)
Heartbeat CPU 5 instructions: 240000005 cycles: 60011029 heartbeat IPC: 4 cumulative IPC: 3.999 (Simulation time: 06 hr 56 min 38 sec)
Heartbeat CPU 12 instructions: 240000006 cycles: 60011103 heartbeat IPC: 4 cumulative IPC: 3.999 (Simulation time: 06 hr 56 min 39 sec)
Heartbeat CPU 14 instructions: 240000002 cycles: 60011231 heartbeat IPC: 4 cumulative IPC: 3.999 (Simulation time: 06 hr 56 min 39 sec)
Heartbeat CPU 6 instructions: 240000006 cycles: 60011241 heartbeat IPC: 4 cumulative IPC: 3.999 (Simulation time: 06 hr 56 min 39 sec)
Heartbeat CPU 7 instructions: 240000003 cycles: 60011258 heartbeat IPC: 4 cumulative IPC: 3.999 (Simulation time: 06 hr 56 min 39 sec)
Heartbeat CPU 15 instructions: 240000003 cycles: 60011340 heartbeat IPC: 4 cumulative IPC: 3.999 (Simulation time: 06 hr 56 min 39 sec)
Heartbeat CPU 2 instructions: 240000006 cycles: 60012866 heartbeat IPC: 4 cumulative IPC: 3.999 (Simulation time: 06 hr 56 min 39 sec)
Heartbeat CPU 10 instructions: 240000006 cycles: 60013049 heartbeat IPC: 4 cumulative IPC: 3.999 (Simulation time: 06 hr 56 min 39 sec)
Heartbeat CPU 1 instructions: 140000011 cycles: 61026109 heartbeat IPC: 2.677 cumulative IPC: 2.294 (Simulation time: 07 hr 03 min 38 sec)
Heartbeat CPU 9 instructions: 140000019 cycles: 61026141 heartbeat IPC: 2.677 cumulative IPC: 2.294 (Simulation time: 07 hr 03 min 38 sec)
Heartbeat CPU 8 instructions: 30000005 cycles: 61789253 heartbeat IPC: 0.4986 cumulative IPC: 0.4855 (Simulation time: 07 hr 08 min 01 sec)
Heartbeat CPU 0 instructions: 30000005 cycles: 61797728 heartbeat IPC: 0.4985 cumulative IPC: 0.4855 (Simulation time: 07 hr 08 min 05 sec)
Heartbeat CPU 4 instructions: 250000006 cycles: 62510914 heartbeat IPC: 4 cumulative IPC: 3.999 (Simulation time: 07 hr 13 min 24 sec)
Heartbeat CPU 13 instructions: 250000009 cycles: 62511000 heartbeat IPC: 4 cumulative IPC: 3.999 (Simulation time: 07 hr 13 min 24 sec)
Heartbeat CPU 11 instructions: 250000008 cycles: 62511005 heartbeat IPC: 4 cumulative IPC: 3.999 (Simulation time: 07 hr 13 min 24 sec)
Heartbeat CPU 3 instructions: 250000008 cycles: 62511006 heartbeat IPC: 4 cumulative IPC: 3.999 (Simulation time: 07 hr 13 min 24 sec)
Heartbeat CPU 5 instructions: 250000005 cycles: 62511029 heartbeat IPC: 4 cumulative IPC: 3.999 (Simulation time: 07 hr 13 min 24 sec)
Heartbeat CPU 12 instructions: 250000006 cycles: 62511103 heartbeat IPC: 4 cumulative IPC: 3.999 (Simulation time: 07 hr 13 min 24 sec)
Heartbeat CPU 14 instructions: 250000002 cycles: 62511231 heartbeat IPC: 4 cumulative IPC: 3.999 (Simulation time: 07 hr 13 min 24 sec)
Heartbeat CPU 6 instructions: 250000006 cycles: 62511241 heartbeat IPC: 4 cumulative IPC: 3.999 (Simulation time: 07 hr 13 min 24 sec)
Heartbeat CPU 7 instructions: 250000003 cycles: 62511258 heartbeat IPC: 4 cumulative IPC: 3.999 (Simulation time: 07 hr 13 min 24 sec)
Heartbeat CPU 15 instructions: 250000003 cycles: 62511340 heartbeat IPC: 4 cumulative IPC: 3.999 (Simulation time: 07 hr 13 min 24 sec)
Heartbeat CPU 2 instructions: 250000006 cycles: 62512866 heartbeat IPC: 4 cumulative IPC: 3.999 (Simulation time: 07 hr 13 min 25 sec)
Heartbeat CPU 10 instructions: 250000006 cycles: 62513049 heartbeat IPC: 4 cumulative IPC: 3.999 (Simulation time: 07 hr 13 min 25 sec)
Heartbeat CPU 4 instructions: 260000006 cycles: 65010914 heartbeat IPC: 4 cumulative IPC: 3.999 (Simulation time: 07 hr 31 min 08 sec)
Heartbeat CPU 13 instructions: 260000009 cycles: 65011000 heartbeat IPC: 4 cumulative IPC: 3.999 (Simulation time: 07 hr 31 min 08 sec)
Heartbeat CPU 11 instructions: 260000008 cycles: 65011005 heartbeat IPC: 4 cumulative IPC: 3.999 (Simulation time: 07 hr 31 min 08 sec)
Heartbeat CPU 3 instructions: 260000008 cycles: 65011006 heartbeat IPC: 4 cumulative IPC: 3.999 (Simulation time: 07 hr 31 min 08 sec)
Heartbeat CPU 5 instructions: 260000005 cycles: 65011029 heartbeat IPC: 4 cumulative IPC: 3.999 (Simulation time: 07 hr 31 min 08 sec)
Heartbeat CPU 12 instructions: 260000006 cycles: 65011103 heartbeat IPC: 4 cumulative IPC: 3.999 (Simulation time: 07 hr 31 min 08 sec)
Heartbeat CPU 14 instructions: 260000002 cycles: 65011231 heartbeat IPC: 4 cumulative IPC: 3.999 (Simulation time: 07 hr 31 min 08 sec)
Heartbeat CPU 6 instructions: 260000006 cycles: 65011241 heartbeat IPC: 4 cumulative IPC: 3.999 (Simulation time: 07 hr 31 min 08 sec)
Heartbeat CPU 7 instructions: 260000003 cycles: 65011258 heartbeat IPC: 4 cumulative IPC: 3.999 (Simulation time: 07 hr 31 min 08 sec)
Heartbeat CPU 15 instructions: 260000003 cycles: 65011340 heartbeat IPC: 4 cumulative IPC: 3.999 (Simulation time: 07 hr 31 min 08 sec)
Heartbeat CPU 2 instructions: 260000006 cycles: 65012866 heartbeat IPC: 4 cumulative IPC: 3.999 (Simulation time: 07 hr 31 min 08 sec)
Heartbeat CPU 10 instructions: 260000006 cycles: 65013049 heartbeat IPC: 4 cumulative IPC: 3.999 (Simulation time: 07 hr 31 min 09 sec)
Heartbeat CPU 1 instructions: 150000014 cycles: 65231789 heartbeat IPC: 2.378 cumulative IPC: 2.299 (Simulation time: 07 hr 32 min 49 sec)
Heartbeat CPU 9 instructions: 150000020 cycles: 65231794 heartbeat IPC: 2.378 cumulative IPC: 2.299 (Simulation time: 07 hr 32 min 49 sec)
Heartbeat CPU 4 instructions: 270000006 cycles: 67510914 heartbeat IPC: 4 cumulative IPC: 3.999 (Simulation time: 07 hr 48 min 18 sec)
Heartbeat CPU 13 instructions: 270000009 cycles: 67511000 heartbeat IPC: 4 cumulative IPC: 3.999 (Simulation time: 07 hr 48 min 18 sec)
Heartbeat CPU 11 instructions: 270000008 cycles: 67511005 heartbeat IPC: 4 cumulative IPC: 3.999 (Simulation time: 07 hr 48 min 18 sec)
Heartbeat CPU 3 instructions: 270000008 cycles: 67511006 heartbeat IPC: 4 cumulative IPC: 3.999 (Simulation time: 07 hr 48 min 18 sec)
Heartbeat CPU 5 instructions: 270000005 cycles: 67511029 heartbeat IPC: 4 cumulative IPC: 3.999 (Simulation time: 07 hr 48 min 18 sec)
Heartbeat CPU 12 instructions: 270000006 cycles: 67511103 heartbeat IPC: 4 cumulative IPC: 3.999 (Simulation time: 07 hr 48 min 18 sec)
Heartbeat CPU 14 instructions: 270000002 cycles: 67511231 heartbeat IPC: 4 cumulative IPC: 3.999 (Simulation time: 07 hr 48 min 18 sec)
Heartbeat CPU 6 instructions: 270000006 cycles: 67511241 heartbeat IPC: 4 cumulative IPC: 3.999 (Simulation time: 07 hr 48 min 18 sec)
Heartbeat CPU 7 instructions: 270000003 cycles: 67511258 heartbeat IPC: 4 cumulative IPC: 3.999 (Simulation time: 07 hr 48 min 18 sec)
Heartbeat CPU 15 instructions: 270000003 cycles: 67511340 heartbeat IPC: 4 cumulative IPC: 3.999 (Simulation time: 07 hr 48 min 18 sec)
Heartbeat CPU 2 instructions: 270000006 cycles: 67512866 heartbeat IPC: 4 cumulative IPC: 3.999 (Simulation time: 07 hr 48 min 19 sec)
Heartbeat CPU 10 instructions: 270000006 cycles: 67513049 heartbeat IPC: 4 cumulative IPC: 3.999 (Simulation time: 07 hr 48 min 19 sec)
*** Reached end of trace: (2, "/home/harshraj/COALESCE-Hashed-Perceptron-Cache-Replacement-Policy/simulator/traces/ocean_8t/ocean2.champsimtrace")
*** Reached end of trace: (10, "/home/harshraj/COALESCE-Hashed-Perceptron-Cache-Replacement-Policy/simulator/traces/ocean_8t/ocean2.champsimtrace")
*** Reached end of trace: (13, "/home/harshraj/COALESCE-Hashed-Perceptron-Cache-Replacement-Policy/simulator/traces/ocean_8t/ocean5.champsimtrace")
*** Reached end of trace: (5, "/home/harshraj/COALESCE-Hashed-Perceptron-Cache-Replacement-Policy/simulator/traces/ocean_8t/ocean5.champsimtrace")
*** Reached end of trace: (4, "/home/harshraj/COALESCE-Hashed-Perceptron-Cache-Replacement-Policy/simulator/traces/ocean_8t/ocean4.champsimtrace")
*** Reached end of trace: (12, "/home/harshraj/COALESCE-Hashed-Perceptron-Cache-Replacement-Policy/simulator/traces/ocean_8t/ocean4.champsimtrace")
*** Reached end of trace: (14, "/home/harshraj/COALESCE-Hashed-Perceptron-Cache-Replacement-Policy/simulator/traces/ocean_8t/ocean6.champsimtrace")
*** Reached end of trace: (6, "/home/harshraj/COALESCE-Hashed-Perceptron-Cache-Replacement-Policy/simulator/traces/ocean_8t/ocean6.champsimtrace")
*** Reached end of trace: (11, "/home/harshraj/COALESCE-Hashed-Perceptron-Cache-Replacement-Policy/simulator/traces/ocean_8t/ocean3.champsimtrace")
*** Reached end of trace: (3, "/home/harshraj/COALESCE-Hashed-Perceptron-Cache-Replacement-Policy/simulator/traces/ocean_8t/ocean3.champsimtrace")
*** Reached end of trace: (7, "/home/harshraj/COALESCE-Hashed-Perceptron-Cache-Replacement-Policy/simulator/traces/ocean_8t/ocean7.champsimtrace")
*** Reached end of trace: (15, "/home/harshraj/COALESCE-Hashed-Perceptron-Cache-Replacement-Policy/simulator/traces/ocean_8t/ocean7.champsimtrace")
Heartbeat CPU 1 instructions: 160000014 cycles: 69358500 heartbeat IPC: 2.423 cumulative IPC: 2.307 (Simulation time: 08 hr 01 min 38 sec)
Heartbeat CPU 9 instructions: 160000022 cycles: 69358500 heartbeat IPC: 2.423 cumulative IPC: 2.307 (Simulation time: 08 hr 01 min 38 sec)
Heartbeat CPU 4 instructions: 280000006 cycles: 70010914 heartbeat IPC: 4 cumulative IPC: 3.999 (Simulation time: 08 hr 06 min 31 sec)
Heartbeat CPU 13 instructions: 280000009 cycles: 70011000 heartbeat IPC: 4 cumulative IPC: 3.999 (Simulation time: 08 hr 06 min 31 sec)
Heartbeat CPU 11 instructions: 280000008 cycles: 70011005 heartbeat IPC: 4 cumulative IPC: 3.999 (Simulation time: 08 hr 06 min 31 sec)
Heartbeat CPU 3 instructions: 280000008 cycles: 70011006 heartbeat IPC: 4 cumulative IPC: 3.999 (Simulation time: 08 hr 06 min 31 sec)
Heartbeat CPU 5 instructions: 280000005 cycles: 70011029 heartbeat IPC: 4 cumulative IPC: 3.999 (Simulation time: 08 hr 06 min 31 sec)
Heartbeat CPU 12 instructions: 280000006 cycles: 70011103 heartbeat IPC: 4 cumulative IPC: 3.999 (Simulation time: 08 hr 06 min 31 sec)
Heartbeat CPU 14 instructions: 280000002 cycles: 70011231 heartbeat IPC: 4 cumulative IPC: 3.999 (Simulation time: 08 hr 06 min 31 sec)
Heartbeat CPU 6 instructions: 280000006 cycles: 70011241 heartbeat IPC: 4 cumulative IPC: 3.999 (Simulation time: 08 hr 06 min 31 sec)
Heartbeat CPU 7 instructions: 280000003 cycles: 70011258 heartbeat IPC: 4 cumulative IPC: 3.999 (Simulation time: 08 hr 06 min 31 sec)
Heartbeat CPU 15 instructions: 280000003 cycles: 70011340 heartbeat IPC: 4 cumulative IPC: 3.999 (Simulation time: 08 hr 06 min 31 sec)
Heartbeat CPU 2 instructions: 280000006 cycles: 70012866 heartbeat IPC: 4 cumulative IPC: 3.999 (Simulation time: 08 hr 06 min 32 sec)
Heartbeat CPU 10 instructions: 280000006 cycles: 70013049 heartbeat IPC: 4 cumulative IPC: 3.999 (Simulation time: 08 hr 06 min 32 sec)
Heartbeat CPU 4 instructions: 290000006 cycles: 72510914 heartbeat IPC: 4 cumulative IPC: 3.999 (Simulation time: 08 hr 23 min 34 sec)
Heartbeat CPU 13 instructions: 290000009 cycles: 72511000 heartbeat IPC: 4 cumulative IPC: 3.999 (Simulation time: 08 hr 23 min 34 sec)
Heartbeat CPU 11 instructions: 290000008 cycles: 72511005 heartbeat IPC: 4 cumulative IPC: 3.999 (Simulation time: 08 hr 23 min 34 sec)
Heartbeat CPU 3 instructions: 290000008 cycles: 72511006 heartbeat IPC: 4 cumulative IPC: 3.999 (Simulation time: 08 hr 23 min 34 sec)
Heartbeat CPU 5 instructions: 290000005 cycles: 72511029 heartbeat IPC: 4 cumulative IPC: 3.999 (Simulation time: 08 hr 23 min 34 sec)
Heartbeat CPU 12 instructions: 290000006 cycles: 72511103 heartbeat IPC: 4 cumulative IPC: 3.999 (Simulation time: 08 hr 23 min 34 sec)
Heartbeat CPU 14 instructions: 290000002 cycles: 72511231 heartbeat IPC: 4 cumulative IPC: 3.999 (Simulation time: 08 hr 23 min 34 sec)
Heartbeat CPU 6 instructions: 290000006 cycles: 72511241 heartbeat IPC: 4 cumulative IPC: 3.999 (Simulation time: 08 hr 23 min 34 sec)
Heartbeat CPU 7 instructions: 290000003 cycles: 72511258 heartbeat IPC: 4 cumulative IPC: 3.999 (Simulation time: 08 hr 23 min 34 sec)
Heartbeat CPU 15 instructions: 290000003 cycles: 72511340 heartbeat IPC: 4 cumulative IPC: 3.999 (Simulation time: 08 hr 23 min 34 sec)
Heartbeat CPU 2 instructions: 290000006 cycles: 72512866 heartbeat IPC: 4 cumulative IPC: 3.999 (Simulation time: 08 hr 23 min 35 sec)
Heartbeat CPU 10 instructions: 290000006 cycles: 72513049 heartbeat IPC: 4 cumulative IPC: 3.999 (Simulation time: 08 hr 23 min 35 sec)
Heartbeat CPU 9 instructions: 170000022 cycles: 74932396 heartbeat IPC: 1.794 cumulative IPC: 2.269 (Simulation time: 08 hr 40 min 30 sec)
Heartbeat CPU 1 instructions: 170000014 cycles: 74932399 heartbeat IPC: 1.794 cumulative IPC: 2.269 (Simulation time: 08 hr 40 min 30 sec)
Heartbeat CPU 4 instructions: 300000006 cycles: 75010914 heartbeat IPC: 4 cumulative IPC: 3.999 (Simulation time: 08 hr 41 min 03 sec)
Heartbeat CPU 13 instructions: 300000009 cycles: 75011000 heartbeat IPC: 4 cumulative IPC: 3.999 (Simulation time: 08 hr 41 min 03 sec)
Heartbeat CPU 11 instructions: 300000008 cycles: 75011005 heartbeat IPC: 4 cumulative IPC: 3.999 (Simulation time: 08 hr 41 min 03 sec)
Heartbeat CPU 3 instructions: 300000008 cycles: 75011006 heartbeat IPC: 4 cumulative IPC: 3.999 (Simulation time: 08 hr 41 min 03 sec)
Heartbeat CPU 5 instructions: 300000005 cycles: 75011029 heartbeat IPC: 4 cumulative IPC: 3.999 (Simulation time: 08 hr 41 min 03 sec)
Heartbeat CPU 12 instructions: 300000006 cycles: 75011103 heartbeat IPC: 4 cumulative IPC: 3.999 (Simulation time: 08 hr 41 min 03 sec)
Heartbeat CPU 14 instructions: 300000002 cycles: 75011231 heartbeat IPC: 4 cumulative IPC: 3.999 (Simulation time: 08 hr 41 min 03 sec)
Heartbeat CPU 6 instructions: 300000006 cycles: 75011241 heartbeat IPC: 4 cumulative IPC: 3.999 (Simulation time: 08 hr 41 min 03 sec)
Heartbeat CPU 7 instructions: 300000003 cycles: 75011258 heartbeat IPC: 4 cumulative IPC: 3.999 (Simulation time: 08 hr 41 min 03 sec)
Heartbeat CPU 15 instructions: 300000003 cycles: 75011340 heartbeat IPC: 4 cumulative IPC: 3.999 (Simulation time: 08 hr 41 min 03 sec)
Heartbeat CPU 2 instructions: 300000006 cycles: 75012866 heartbeat IPC: 4 cumulative IPC: 3.999 (Simulation time: 08 hr 41 min 04 sec)
Heartbeat CPU 10 instructions: 300000006 cycles: 75013049 heartbeat IPC: 4 cumulative IPC: 3.999 (Simulation time: 08 hr 41 min 04 sec)
Heartbeat CPU 4 instructions: 310000006 cycles: 77510914 heartbeat IPC: 4 cumulative IPC: 3.999 (Simulation time: 08 hr 58 min 34 sec)
Heartbeat CPU 13 instructions: 310000009 cycles: 77511000 heartbeat IPC: 4 cumulative IPC: 3.999 (Simulation time: 08 hr 58 min 34 sec)
Heartbeat CPU 11 instructions: 310000008 cycles: 77511005 heartbeat IPC: 4 cumulative IPC: 3.999 (Simulation time: 08 hr 58 min 34 sec)
Heartbeat CPU 3 instructions: 310000008 cycles: 77511006 heartbeat IPC: 4 cumulative IPC: 3.999 (Simulation time: 08 hr 58 min 34 sec)
Heartbeat CPU 5 instructions: 310000005 cycles: 77511029 heartbeat IPC: 4 cumulative IPC: 3.999 (Simulation time: 08 hr 58 min 34 sec)
Heartbeat CPU 12 instructions: 310000006 cycles: 77511103 heartbeat IPC: 4 cumulative IPC: 3.999 (Simulation time: 08 hr 58 min 34 sec)
Heartbeat CPU 14 instructions: 310000002 cycles: 77511231 heartbeat IPC: 4 cumulative IPC: 3.999 (Simulation time: 08 hr 58 min 34 sec)
Heartbeat CPU 6 instructions: 310000006 cycles: 77511241 heartbeat IPC: 4 cumulative IPC: 3.999 (Simulation time: 08 hr 58 min 34 sec)
Heartbeat CPU 7 instructions: 310000003 cycles: 77511258 heartbeat IPC: 4 cumulative IPC: 3.999 (Simulation time: 08 hr 58 min 34 sec)
Heartbeat CPU 15 instructions: 310000003 cycles: 77511340 heartbeat IPC: 4 cumulative IPC: 3.999 (Simulation time: 08 hr 58 min 34 sec)
Heartbeat CPU 2 instructions: 310000006 cycles: 77512866 heartbeat IPC: 4 cumulative IPC: 3.999 (Simulation time: 08 hr 58 min 35 sec)
Heartbeat CPU 10 instructions: 310000006 cycles: 77513049 heartbeat IPC: 4 cumulative IPC: 3.999 (Simulation time: 08 hr 58 min 35 sec)
Heartbeat CPU 1 instructions: 180000017 cycles: 78478449 heartbeat IPC: 2.82 cumulative IPC: 2.294 (Simulation time: 09 hr 06 min 04 sec)
Heartbeat CPU 9 instructions: 180000025 cycles: 78478452 heartbeat IPC: 2.82 cumulative IPC: 2.294 (Simulation time: 09 hr 06 min 04 sec)
*** Reached end of trace: (2, "/home/harshraj/COALESCE-Hashed-Perceptron-Cache-Replacement-Policy/simulator/traces/ocean_8t/ocean2.champsimtrace")
*** Reached end of trace: (10, "/home/harshraj/COALESCE-Hashed-Perceptron-Cache-Replacement-Policy/simulator/traces/ocean_8t/ocean2.champsimtrace")
*** Reached end of trace: (9, "/home/harshraj/COALESCE-Hashed-Perceptron-Cache-Replacement-Policy/simulator/traces/ocean_8t/ocean1.champsimtrace")
*** Reached end of trace: (1, "/home/harshraj/COALESCE-Hashed-Perceptron-Cache-Replacement-Policy/simulator/traces/ocean_8t/ocean1.champsimtrace")
*** Reached end of trace: (13, "/home/harshraj/COALESCE-Hashed-Perceptron-Cache-Replacement-Policy/simulator/traces/ocean_8t/ocean5.champsimtrace")
*** Reached end of trace: (5, "/home/harshraj/COALESCE-Hashed-Perceptron-Cache-Replacement-Policy/simulator/traces/ocean_8t/ocean5.champsimtrace")
*** Reached end of trace: (4, "/home/harshraj/COALESCE-Hashed-Perceptron-Cache-Replacement-Policy/simulator/traces/ocean_8t/ocean4.champsimtrace")
*** Reached end of trace: (12, "/home/harshraj/COALESCE-Hashed-Perceptron-Cache-Replacement-Policy/simulator/traces/ocean_8t/ocean4.champsimtrace")
*** Reached end of trace: (14, "/home/harshraj/COALESCE-Hashed-Perceptron-Cache-Replacement-Policy/simulator/traces/ocean_8t/ocean6.champsimtrace")
*** Reached end of trace: (6, "/home/harshraj/COALESCE-Hashed-Perceptron-Cache-Replacement-Policy/simulator/traces/ocean_8t/ocean6.champsimtrace")
*** Reached end of trace: (11, "/home/harshraj/COALESCE-Hashed-Perceptron-Cache-Replacement-Policy/simulator/traces/ocean_8t/ocean3.champsimtrace")
*** Reached end of trace: (3, "/home/harshraj/COALESCE-Hashed-Perceptron-Cache-Replacement-Policy/simulator/traces/ocean_8t/ocean3.champsimtrace")
*** Reached end of trace: (7, "/home/harshraj/COALESCE-Hashed-Perceptron-Cache-Replacement-Policy/simulator/traces/ocean_8t/ocean7.champsimtrace")
*** Reached end of trace: (15, "/home/harshraj/COALESCE-Hashed-Perceptron-Cache-Replacement-Policy/simulator/traces/ocean_8t/ocean7.champsimtrace")
Heartbeat CPU 4 instructions: 320000006 cycles: 80010914 heartbeat IPC: 4 cumulative IPC: 3.999 (Simulation time: 09 hr 16 min 45 sec)
Heartbeat CPU 13 instructions: 320000009 cycles: 80011000 heartbeat IPC: 4 cumulative IPC: 3.999 (Simulation time: 09 hr 16 min 45 sec)
Heartbeat CPU 11 instructions: 320000008 cycles: 80011005 heartbeat IPC: 4 cumulative IPC: 3.999 (Simulation time: 09 hr 16 min 45 sec)
Heartbeat CPU 3 instructions: 320000008 cycles: 80011006 heartbeat IPC: 4 cumulative IPC: 3.999 (Simulation time: 09 hr 16 min 45 sec)
Heartbeat CPU 5 instructions: 320000005 cycles: 80011029 heartbeat IPC: 4 cumulative IPC: 3.999 (Simulation time: 09 hr 16 min 45 sec)
Heartbeat CPU 12 instructions: 320000006 cycles: 80011103 heartbeat IPC: 4 cumulative IPC: 3.999 (Simulation time: 09 hr 16 min 45 sec)
Heartbeat CPU 14 instructions: 320000002 cycles: 80011231 heartbeat IPC: 4 cumulative IPC: 3.999 (Simulation time: 09 hr 16 min 45 sec)
Heartbeat CPU 6 instructions: 320000006 cycles: 80011241 heartbeat IPC: 4 cumulative IPC: 3.999 (Simulation time: 09 hr 16 min 45 sec)
Heartbeat CPU 7 instructions: 320000003 cycles: 80011258 heartbeat IPC: 4 cumulative IPC: 3.999 (Simulation time: 09 hr 16 min 45 sec)
Heartbeat CPU 15 instructions: 320000003 cycles: 80011340 heartbeat IPC: 4 cumulative IPC: 3.999 (Simulation time: 09 hr 16 min 45 sec)
Heartbeat CPU 2 instructions: 320000006 cycles: 80012866 heartbeat IPC: 4 cumulative IPC: 3.999 (Simulation time: 09 hr 16 min 45 sec)
Heartbeat CPU 10 instructions: 320000006 cycles: 80013049 heartbeat IPC: 4 cumulative IPC: 3.999 (Simulation time: 09 hr 16 min 45 sec)
Heartbeat CPU 1 instructions: 190000020 cycles: 82496112 heartbeat IPC: 2.489 cumulative IPC: 2.303 (Simulation time: 09 hr 35 min 32 sec)
Heartbeat CPU 9 instructions: 190000028 cycles: 82496150 heartbeat IPC: 2.489 cumulative IPC: 2.303 (Simulation time: 09 hr 35 min 32 sec)
Heartbeat CPU 4 instructions: 330000006 cycles: 82510914 heartbeat IPC: 4 cumulative IPC: 3.999 (Simulation time: 09 hr 35 min 39 sec)
Heartbeat CPU 13 instructions: 330000009 cycles: 82511000 heartbeat IPC: 4 cumulative IPC: 3.999 (Simulation time: 09 hr 35 min 39 sec)
Heartbeat CPU 11 instructions: 330000008 cycles: 82511005 heartbeat IPC: 4 cumulative IPC: 3.999 (Simulation time: 09 hr 35 min 39 sec)
Heartbeat CPU 3 instructions: 330000008 cycles: 82511006 heartbeat IPC: 4 cumulative IPC: 3.999 (Simulation time: 09 hr 35 min 39 sec)
Heartbeat CPU 5 instructions: 330000005 cycles: 82511029 heartbeat IPC: 4 cumulative IPC: 3.999 (Simulation time: 09 hr 35 min 39 sec)
Heartbeat CPU 12 instructions: 330000006 cycles: 82511103 heartbeat IPC: 4 cumulative IPC: 3.999 (Simulation time: 09 hr 35 min 39 sec)
Heartbeat CPU 14 instructions: 330000002 cycles: 82511231 heartbeat IPC: 4 cumulative IPC: 3.999 (Simulation time: 09 hr 35 min 39 sec)
Heartbeat CPU 6 instructions: 330000006 cycles: 82511241 heartbeat IPC: 4 cumulative IPC: 3.999 (Simulation time: 09 hr 35 min 39 sec)
Heartbeat CPU 7 instructions: 330000003 cycles: 82511258 heartbeat IPC: 4 cumulative IPC: 3.999 (Simulation time: 09 hr 35 min 39 sec)
Heartbeat CPU 15 instructions: 330000003 cycles: 82511340 heartbeat IPC: 4 cumulative IPC: 3.999 (Simulation time: 09 hr 35 min 39 sec)
Heartbeat CPU 2 instructions: 330000006 cycles: 82512866 heartbeat IPC: 4 cumulative IPC: 3.999 (Simulation time: 09 hr 35 min 40 sec)
Heartbeat CPU 10 instructions: 330000006 cycles: 82513049 heartbeat IPC: 4 cumulative IPC: 3.999 (Simulation time: 09 hr 35 min 40 sec)
Heartbeat CPU 0 instructions: 40000006 cycles: 84214412 heartbeat IPC: 0.4461 cumulative IPC: 0.475 (Simulation time: 09 hr 47 min 06 sec)
Heartbeat CPU 8 instructions: 40000006 cycles: 84214592 heartbeat IPC: 0.4459 cumulative IPC: 0.475 (Simulation time: 09 hr 47 min 06 sec)
Heartbeat CPU 4 instructions: 340000006 cycles: 85010914 heartbeat IPC: 4 cumulative IPC: 3.999 (Simulation time: 09 hr 52 min 05 sec)
Heartbeat CPU 13 instructions: 340000009 cycles: 85011000 heartbeat IPC: 4 cumulative IPC: 3.999 (Simulation time: 09 hr 52 min 05 sec)
Heartbeat CPU 11 instructions: 340000008 cycles: 85011005 heartbeat IPC: 4 cumulative IPC: 3.999 (Simulation time: 09 hr 52 min 05 sec)
Heartbeat CPU 3 instructions: 340000008 cycles: 85011006 heartbeat IPC: 4 cumulative IPC: 3.999 (Simulation time: 09 hr 52 min 05 sec)
Heartbeat CPU 5 instructions: 340000005 cycles: 85011029 heartbeat IPC: 4 cumulative IPC: 3.999 (Simulation time: 09 hr 52 min 05 sec)
Heartbeat CPU 12 instructions: 340000006 cycles: 85011103 heartbeat IPC: 4 cumulative IPC: 3.999 (Simulation time: 09 hr 52 min 05 sec)
Heartbeat CPU 14 instructions: 340000002 cycles: 85011231 heartbeat IPC: 4 cumulative IPC: 3.999 (Simulation time: 09 hr 52 min 05 sec)
Heartbeat CPU 6 instructions: 340000006 cycles: 85011241 heartbeat IPC: 4 cumulative IPC: 3.999 (Simulation time: 09 hr 52 min 05 sec)
Heartbeat CPU 7 instructions: 340000003 cycles: 85011258 heartbeat IPC: 4 cumulative IPC: 3.999 (Simulation time: 09 hr 52 min 05 sec)
Heartbeat CPU 15 instructions: 340000003 cycles: 85011340 heartbeat IPC: 4 cumulative IPC: 3.999 (Simulation time: 09 hr 52 min 05 sec)
Heartbeat CPU 2 instructions: 340000006 cycles: 85012866 heartbeat IPC: 4 cumulative IPC: 3.999 (Simulation time: 09 hr 52 min 05 sec)
Heartbeat CPU 10 instructions: 340000006 cycles: 85013049 heartbeat IPC: 4 cumulative IPC: 3.999 (Simulation time: 09 hr 52 min 05 sec)
Heartbeat CPU 1 instructions: 200000020 cycles: 86588330 heartbeat IPC: 2.444 cumulative IPC: 2.31 (Simulation time: 10 hr 03 min 13 sec)
Heartbeat CPU 9 instructions: 200000028 cycles: 86588332 heartbeat IPC: 2.444 cumulative IPC: 2.31 (Simulation time: 10 hr 03 min 13 sec)
Heartbeat CPU 4 instructions: 350000006 cycles: 87510914 heartbeat IPC: 4 cumulative IPC: 4 (Simulation time: 10 hr 10 min 06 sec)
Heartbeat CPU 13 instructions: 350000009 cycles: 87511000 heartbeat IPC: 4 cumulative IPC: 3.999 (Simulation time: 10 hr 10 min 06 sec)
Heartbeat CPU 11 instructions: 350000008 cycles: 87511005 heartbeat IPC: 4 cumulative IPC: 3.999 (Simulation time: 10 hr 10 min 06 sec)
Heartbeat CPU 3 instructions: 350000008 cycles: 87511006 heartbeat IPC: 4 cumulative IPC: 3.999 (Simulation time: 10 hr 10 min 06 sec)
Heartbeat CPU 5 instructions: 350000005 cycles: 87511029 heartbeat IPC: 4 cumulative IPC: 3.999 (Simulation time: 10 hr 10 min 06 sec)
Heartbeat CPU 12 instructions: 350000006 cycles: 87511103 heartbeat IPC: 4 cumulative IPC: 3.999 (Simulation time: 10 hr 10 min 06 sec)
Heartbeat CPU 14 instructions: 350000002 cycles: 87511231 heartbeat IPC: 4 cumulative IPC: 3.999 (Simulation time: 10 hr 10 min 06 sec)
Heartbeat CPU 6 instructions: 350000006 cycles: 87511241 heartbeat IPC: 4 cumulative IPC: 3.999 (Simulation time: 10 hr 10 min 06 sec)
Heartbeat CPU 7 instructions: 350000003 cycles: 87511258 heartbeat IPC: 4 cumulative IPC: 3.999 (Simulation time: 10 hr 10 min 06 sec)
Heartbeat CPU 15 instructions: 350000003 cycles: 87511340 heartbeat IPC: 4 cumulative IPC: 3.999 (Simulation time: 10 hr 10 min 06 sec)
Heartbeat CPU 2 instructions: 350000006 cycles: 87512866 heartbeat IPC: 4 cumulative IPC: 3.999 (Simulation time: 10 hr 10 min 06 sec)
Heartbeat CPU 10 instructions: 350000006 cycles: 87513049 heartbeat IPC: 4 cumulative IPC: 3.999 (Simulation time: 10 hr 10 min 07 sec)
Heartbeat CPU 4 instructions: 360000006 cycles: 90010914 heartbeat IPC: 4 cumulative IPC: 4 (Simulation time: 10 hr 27 min 01 sec)
Heartbeat CPU 13 instructions: 360000009 cycles: 90011000 heartbeat IPC: 4 cumulative IPC: 4 (Simulation time: 10 hr 27 min 01 sec)
Heartbeat CPU 11 instructions: 360000008 cycles: 90011005 heartbeat IPC: 4 cumulative IPC: 4 (Simulation time: 10 hr 27 min 01 sec)
Heartbeat CPU 3 instructions: 360000008 cycles: 90011006 heartbeat IPC: 4 cumulative IPC: 4 (Simulation time: 10 hr 27 min 01 sec)
Heartbeat CPU 5 instructions: 360000005 cycles: 90011029 heartbeat IPC: 4 cumulative IPC: 4 (Simulation time: 10 hr 27 min 01 sec)
Heartbeat CPU 12 instructions: 360000006 cycles: 90011103 heartbeat IPC: 4 cumulative IPC: 4 (Simulation time: 10 hr 27 min 01 sec)
[...]
cpu12_STLB COHERENCE WRITE-HIT OTHER-SHARER EVENTS:          0
cpu12->cpu12_L2C TOTAL        ACCESS:      47403 HIT:      47403 MISS:          0 MSHR_MERGE:          0
cpu12->cpu12_L2C LOAD         ACCESS:      47403 HIT:      47403 MISS:          0 MSHR_MERGE:          0
cpu12->cpu12_L2C RFO          ACCESS:          0 HIT:          0 MISS:          0 MSHR_MERGE:          0
cpu12->cpu12_L2C PREFETCH     ACCESS:          0 HIT:          0 MISS:          0 MSHR_MERGE:          0
cpu12->cpu12_L2C WRITE        ACCESS:          0 HIT:          0 MISS:          0 MSHR_MERGE:          0
cpu12->cpu12_L2C TRANSLATION  ACCESS:          0 HIT:          0 MISS:          0 MSHR_MERGE:          0
cpu12->cpu12_L2C PREFETCH REQUESTED:          0 ISSUED:          0 USEFUL:          0 USELESS:          0
cpu12->cpu12_L2C AVERAGE MISS LATENCY: - cycles
cpu12_L2C COHERENCE INVALIDATIONS:          0
cpu12_L2C COHERENCE WRITE-HIT OTHER-SHARER EVENTS:          0
cpu12->cpu12_L1I TOTAL        ACCESS:  444034031 HIT:  443958336 MISS:      75695 MSHR_MERGE:      28292
cpu12->cpu12_L1I LOAD         ACCESS:  444034031 HIT:  443958336 MISS:      75695 MSHR_MERGE:      28292
cpu12->cpu12_L1I RFO          ACCESS:          0 HIT:          0 MISS:          0 MSHR_MERGE:          0
cpu12->cpu12_L1I PREFETCH     ACCESS:          0 HIT:          0 MISS:          0 MSHR_MERGE:          0
cpu12->cpu12_L1I WRITE        ACCESS:          0 HIT:          0 MISS:          0 MSHR_MERGE:          0
cpu12->cpu12_L1I TRANSLATION  ACCESS:          0 HIT:          0 MISS:          0 MSHR_MERGE:          0
cpu12->cpu12_L1I PREFETCH REQUESTED:          0 ISSUED:          0 USEFUL:          0 USELESS:          0
cpu12->cpu12_L1I AVERAGE MISS LATENCY: 7.2 cycles
cpu12_L1I COHERENCE INVALIDATIONS:          0
cpu12_L1I COHERENCE WRITE-HIT OTHER-SHARER EVENTS:          0
cpu12_L1D COHERENCE INVALIDATIONS:          0
cpu12_L1D COHERENCE WRITE-HIT OTHER-SHARER EVENTS:          0
cpu12->cpu12_ITLB TOTAL        ACCESS:  351038900 HIT:  351037102 MISS:       1798 MSHR_MERGE:        930
cpu12->cpu12_ITLB LOAD         ACCESS:  351038900 HIT:  351037102 MISS:       1798 MSHR_MERGE:        930
cpu12->cpu12_ITLB RFO          ACCESS:          0 HIT:          0 MISS:          0 MSHR_MERGE:          0
cpu12->cpu12_ITLB PREFETCH     ACCESS:          0 HIT:          0 MISS:          0 MSHR_MERGE:          0
cpu12->cpu12_ITLB WRITE        ACCESS:          0 HIT:          0 MISS:          0 MSHR_MERGE:          0
cpu12->cpu12_ITLB TRANSLATION  ACCESS:          0 HIT:          0 MISS:          0 MSHR_MERGE:          0
cpu12->cpu12_ITLB PREFETCH REQUESTED:          0 ISSUED:          0 USEFUL:          0 USELESS:          0
cpu12->cpu12_ITLB AVERAGE MISS LATENCY: 4 cycles
cpu12_ITLB COHERENCE INVALIDATIONS:          0
cpu12_ITLB COHERENCE WRITE-HIT OTHER-SHARER EVENTS:          0
cpu12_DTLB COHERENCE INVALIDATIONS:          0
cpu12_DTLB COHERENCE WRITE-HIT OTHER-SHARER EVENTS:          0
cpu11->cpu11_STLB TOTAL        ACCESS:        992 HIT:        992 MISS:          0 MSHR_MERGE:          0
cpu11->cpu11_STLB LOAD         ACCESS:        992 HIT:        992 MISS:          0 MSHR_MERGE:          0
cpu11->cpu11_STLB RFO          ACCESS:          0 HIT:          0 MISS:          0 MSHR_MERGE:          0
cpu11->cpu11_STLB PREFETCH     ACCESS:          0 HIT:          0 MISS:          0 MSHR_MERGE:          0
cpu11->cpu11_STLB WRITE        ACCESS:          0 HIT:          0 MISS:          0 MSHR_MERGE:          0
cpu11->cpu11_STLB TRANSLATION  ACCESS:          0 HIT:          0 MISS:          0 MSHR_MERGE:          0
cpu11->cpu11_STLB PREFETCH REQUESTED:          0 ISSUED:          0 USEFUL:          0 USELESS:          0
cpu11->cpu11_STLB AVERAGE MISS LATENCY: - cycles
cpu11_STLB COHERENCE INVALIDATIONS:          0
cpu11_STLB COHERENCE WRITE-HIT OTHER-SHARER EVENTS:          0
cpu11->cpu11_L2C TOTAL        ACCESS:      97249 HIT:      97249 MISS:          0 MSHR_MERGE:          0
cpu11->cpu11_L2C LOAD         ACCESS:      97249 HIT:      97249 MISS:          0 MSHR_MERGE:          0
cpu11->cpu11_L2C RFO          ACCESS:          0 HIT:          0 MISS:          0 MSHR_MERGE:          0
cpu11->cpu11_L2C PREFETCH     ACCESS:          0 HIT:          0 MISS:          0 MSHR_MERGE:          0
cpu11->cpu11_L2C WRITE        ACCESS:          0 HIT:          0 MISS:          0 MSHR_MERGE:          0
cpu11->cpu11_L2C TRANSLATION  ACCESS:          0 HIT:          0 MISS:          0 MSHR_MERGE:          0
cpu11->cpu11_L2C PREFETCH REQUESTED:          0 ISSUED:          0 USEFUL:          0 USELESS:          0
cpu11->cpu11_L2C AVERAGE MISS LATENCY: - cycles
cpu11_L2C COHERENCE INVALIDATIONS:          0
cpu11_L2C COHERENCE WRITE-HIT OTHER-SHARER EVENTS:          0
cpu11->cpu11_L1I TOTAL        ACCESS:  443392777 HIT:  443246941 MISS:     145836 MSHR_MERGE:      48587
cpu11->cpu11_L1I LOAD         ACCESS:  443392777 HIT:  443246941 MISS:     145836 MSHR_MERGE:      48587
cpu11->cpu11_L1I RFO          ACCESS:          0 HIT:          0 MISS:          0 MSHR_MERGE:          0
cpu11->cpu11_L1I PREFETCH     ACCESS:          0 HIT:          0 MISS:          0 MSHR_MERGE:          0
cpu11->cpu11_L1I WRITE        ACCESS:          0 HIT:          0 MISS:          0 MSHR_MERGE:          0
cpu11->cpu11_L1I TRANSLATION  ACCESS:          0 HIT:          0 MISS:          0 MSHR_MERGE:          0
cpu11->cpu11_L1I PREFETCH REQUESTED:          0 ISSUED:          0 USEFUL:          0 USELESS:          0
cpu11->cpu11_L1I AVERAGE MISS LATENCY: 7 cycles
cpu11_L1I COHERENCE INVALIDATIONS:          0
cpu11_L1I COHERENCE WRITE-HIT OTHER-SHARER EVENTS:          0
cpu11_L1D COHERENCE INVALIDATIONS:          0
cpu11_L1D COHERENCE WRITE-HIT OTHER-SHARER EVENTS:          0
cpu11->cpu11_ITLB TOTAL        ACCESS:  351125927 HIT:  351124067 MISS:       1860 MSHR_MERGE:        868
cpu11->cpu11_ITLB LOAD         ACCESS:  351125927 HIT:  351124067 MISS:       1860 MSHR_MERGE:        868
cpu11->cpu11_ITLB RFO          ACCESS:          0 HIT:          0 MISS:          0 MSHR_MERGE:          0
cpu11->cpu11_ITLB PREFETCH     ACCESS:          0 HIT:          0 MISS:          0 MSHR_MERGE:          0
cpu11->cpu11_ITLB WRITE        ACCESS:          0 HIT:          0 MISS:          0 MSHR_MERGE:          0
cpu11->cpu11_ITLB TRANSLATION  ACCESS:          0 HIT:          0 MISS:          0 MSHR_MERGE:          0
cpu11->cpu11_ITLB PREFETCH REQUESTED:          0 ISSUED:          0 USEFUL:          0 USELESS:          0
cpu11->cpu11_ITLB AVERAGE MISS LATENCY: 4 cycles
cpu11_ITLB COHERENCE INVALIDATIONS:          0
cpu11_ITLB COHERENCE WRITE-HIT OTHER-SHARER EVENTS:          0
cpu11_DTLB COHERENCE INVALIDATIONS:          0
cpu11_DTLB COHERENCE WRITE-HIT OTHER-SHARER EVENTS:          0
cpu10->cpu10_STLB TOTAL        ACCESS:        992 HIT:        992 MISS:          0 MSHR_MERGE:          0
cpu10->cpu10_STLB LOAD         ACCESS:        992 HIT:        992 MISS:          0 MSHR_MERGE:          0
cpu10->cpu10_STLB RFO          ACCESS:          0 HIT:          0 MISS:          0 MSHR_MERGE:          0
cpu10->cpu10_STLB PREFETCH     ACCESS:          0 HIT:          0 MISS:          0 MSHR_MERGE:          0
cpu10->cpu10_STLB WRITE        ACCESS:          0 HIT:          0 MISS:          0 MSHR_MERGE:          0
cpu10->cpu10_STLB TRANSLATION  ACCESS:          0 HIT:          0 MISS:          0 MSHR_MERGE:          0
cpu10->cpu10_STLB PREFETCH REQUESTED:          0 ISSUED:          0 USEFUL:          0 USELESS:          0
cpu10->cpu10_STLB AVERAGE MISS LATENCY: - cycles
cpu10_STLB COHERENCE INVALIDATIONS:          0
cpu10_STLB COHERENCE WRITE-HIT OTHER-SHARER EVENTS:          0
cpu10->cpu10_L2C TOTAL        ACCESS:     103463 HIT:     103463 MISS:          0 MSHR_MERGE:          0
cpu10->cpu10_L2C LOAD         ACCESS:     103463 HIT:     103463 MISS:          0 MSHR_MERGE:          0
cpu10->cpu10_L2C RFO          ACCESS:          0 HIT:          0 MISS:          0 MSHR_MERGE:          0
cpu10->cpu10_L2C PREFETCH     ACCESS:          0 HIT:          0 MISS:          0 MSHR_MERGE:          0
cpu10->cpu10_L2C WRITE        ACCESS:          0 HIT:          0 MISS:          0 MSHR_MERGE:          0
cpu10->cpu10_L2C TRANSLATION  ACCESS:          0 HIT:          0 MISS:          0 MSHR_MERGE:          0
cpu10->cpu10_L2C PREFETCH REQUESTED:          0 ISSUED:          0 USEFUL:          0 USELESS:          0
cpu10->cpu10_L2C AVERAGE MISS LATENCY: - cycles
cpu10_L2C COHERENCE INVALIDATIONS:          0
cpu10_L2C COHERENCE WRITE-HIT OTHER-SHARER EVENTS:          0
cpu10->cpu10_L1I TOTAL        ACCESS:  444242011 HIT:  444085422 MISS:     156589 MSHR_MERGE:      53126
cpu10->cpu10_L1I LOAD         ACCESS:  444242011 HIT:  444085422 MISS:     156589 MSHR_MERGE:      53126
cpu10->cpu10_L1I RFO          ACCESS:          0 HIT:          0 MISS:          0 MSHR_MERGE:          0
cpu10->cpu10_L1I PREFETCH     ACCESS:          0 HIT:          0 MISS:          0 MSHR_MERGE:          0
cpu10->cpu10_L1I WRITE        ACCESS:          0 HIT:          0 MISS:          0 MSHR_MERGE:          0
cpu10->cpu10_L1I TRANSLATION  ACCESS:          0 HIT:          0 MISS:          0 MSHR_MERGE:          0
cpu10->cpu10_L1I PREFETCH REQUESTED:          0 ISSUED:          0 USEFUL:          0 USELESS:          0
cpu10->cpu10_L1I AVERAGE MISS LATENCY: 7 cycles
cpu10_L1I COHERENCE INVALIDATIONS:          0
cpu10_L1I COHERENCE WRITE-HIT OTHER-SHARER EVENTS:          0
cpu10_L1D COHERENCE INVALIDATIONS:          0
cpu10_L1D COHERENCE WRITE-HIT OTHER-SHARER EVENTS:          0
cpu10->cpu10_ITLB TOTAL        ACCESS:  351004176 HIT:  351002378 MISS:       1798 MSHR_MERGE:        806
cpu10->cpu10_ITLB LOAD         ACCESS:  351004176 HIT:  351002378 MISS:       1798 MSHR_MERGE:        806
cpu10->cpu10_ITLB RFO          ACCESS:          0 HIT:          0 MISS:          0 MSHR_MERGE:          0
cpu10->cpu10_ITLB PREFETCH     ACCESS:          0 HIT:          0 MISS:          0 MSHR_MERGE:          0
cpu10->cpu10_ITLB WRITE        ACCESS:          0 HIT:          0 MISS:          0 MSHR_MERGE:          0
cpu10->cpu10_ITLB TRANSLATION  ACCESS:          0 HIT:          0 MISS:          0 MSHR_MERGE:          0
cpu10->cpu10_ITLB PREFETCH REQUESTED:          0 ISSUED:          0 USEFUL:          0 USELESS:          0
cpu10->cpu10_ITLB AVERAGE MISS LATENCY: 4 cycles
cpu10_ITLB COHERENCE INVALIDATIONS:          0
cpu10_ITLB COHERENCE WRITE-HIT OTHER-SHARER EVENTS:          0
cpu10_DTLB COHERENCE INVALIDATIONS:          0
cpu10_DTLB COHERENCE WRITE-HIT OTHER-SHARER EVENTS:          0
cpu0->cpu0_STLB TOTAL        ACCESS:    4695394 HIT:    4547704 MISS:     147690 MSHR_MERGE:          0
cpu0->cpu0_STLB LOAD         ACCESS:    4695394 HIT:    4547704 MISS:     147690 MSHR_MERGE:          0
cpu0->cpu0_STLB RFO          ACCESS:          0 HIT:          0 MISS:          0 MSHR_MERGE:          0
cpu0->cpu0_STLB PREFETCH     ACCESS:          0 HIT:          0 MISS:          0 MSHR_MERGE:          0
cpu0->cpu0_STLB WRITE        ACCESS:          0 HIT:          0 MISS:          0 MSHR_MERGE:          0
cpu0->cpu0_STLB TRANSLATION  ACCESS:          0 HIT:          0 MISS:          0 MSHR_MERGE:          0
cpu0->cpu0_STLB PREFETCH REQUESTED:          0 ISSUED:          0 USEFUL:          0 USELESS:          0
cpu0->cpu0_STLB AVERAGE MISS LATENCY: 775.2 cycles
cpu0_STLB COHERENCE INVALIDATIONS:          0
cpu0_STLB COHERENCE WRITE-HIT OTHER-SHARER EVENTS:          0
cpu0->cpu0_L2C TOTAL        ACCESS:   32540472 HIT:   14755616 MISS:   17784856 MSHR_MERGE:          0
cpu0->cpu0_L2C LOAD         ACCESS:   21248644 HIT:    6648025 MISS:   14600619 MSHR_MERGE:          0
cpu0->cpu0_L2C RFO          ACCESS:    3439866 HIT:     488954 MISS:    2950912 MSHR_MERGE:          0
cpu0->cpu0_L2C PREFETCH     ACCESS:          0 HIT:          0 MISS:          0 MSHR_MERGE:          0
cpu0->cpu0_L2C WRITE        ACCESS:    7579636 HIT:    7578960 MISS:        676 MSHR_MERGE:          0
cpu0->cpu0_L2C TRANSLATION  ACCESS:     272326 HIT:      39677 MISS:     232649 MSHR_MERGE:          0
cpu0->cpu0_L2C PREFETCH REQUESTED:          0 ISSUED:          0 USEFUL:          0 USELESS:          0
cpu0->cpu0_L2C AVERAGE MISS LATENCY: 240 cycles
cpu0_L2C COHERENCE INVALIDATIONS:          0
cpu0_L2C COHERENCE WRITE-HIT OTHER-SHARER EVENTS:          0
cpu0->cpu0_L1I TOTAL        ACCESS:   31130697 HIT:   31119349 MISS:      11348 MSHR_MERGE:       5119
cpu0->cpu0_L1I LOAD         ACCESS:   31130697 HIT:   31119349 MISS:      11348 MSHR_MERGE:       5119
cpu0->cpu0_L1I RFO          ACCESS:          0 HIT:          0 MISS:          0 MSHR_MERGE:          0
cpu0->cpu0_L1I PREFETCH     ACCESS:          0 HIT:          0 MISS:          0 MSHR_MERGE:          0
cpu0->cpu0_L1I WRITE        ACCESS:          0 HIT:          0 MISS:          0 MSHR_MERGE:          0
cpu0->cpu0_L1I TRANSLATION  ACCESS:          0 HIT:          0 MISS:          0 MSHR_MERGE:          0
cpu0->cpu0_L1I PREFETCH REQUESTED:          0 ISSUED:          0 USEFUL:          0 USELESS:          0
cpu0->cpu0_L1I AVERAGE MISS LATENCY: 263.6 cycles
cpu0_L1I COHERENCE INVALIDATIONS:          0
cpu0_L1I COHERENCE WRITE-HIT OTHER-SHARER EVENTS:          0
cpu0->cpu0_L1D TOTAL        ACCESS:  103197697 HIT:   74592280 MISS:   28605417 MSHR_MERGE:    3649265
cpu0->cpu0_L1D LOAD         ACCESS:   44862329 HIT:   22608515 MISS:   22253814 MSHR_MERGE:    1011139
cpu0->cpu0_L1D RFO          ACCESS:          0 HIT:          0 MISS:          0 MSHR_MERGE:          0
cpu0->cpu0_L1D PREFETCH     ACCESS:          0 HIT:          0 MISS:          0 MSHR_MERGE:          0
cpu0->cpu0_L1D WRITE        ACCESS:   58034846 HIT:   51961592 MISS:    6073254 MSHR_MERGE:    2632103
cpu0->cpu0_L1D TRANSLATION  ACCESS:     300522 HIT:      22173 MISS:     278349 MSHR_MERGE:       6023
cpu0->cpu0_L1D PREFETCH REQUESTED:          0 ISSUED:          0 USEFUL:          0 USELESS:          0
cpu0->cpu0_L1D AVERAGE MISS LATENCY: 178.7 cycles
cpu0_L1D COHERENCE INVALIDATIONS:          0
cpu0_L1D COHERENCE WRITE-HIT OTHER-SHARER EVENTS:          0
cpu0->cpu0_ITLB TOTAL        ACCESS:   29940471 HIT:   29939400 MISS:       1071 MSHR_MERGE:        722
cpu0->cpu0_ITLB LOAD         ACCESS:   29940471 HIT:   29939400 MISS:       1071 MSHR_MERGE:        722
cpu0->cpu0_ITLB RFO          ACCESS:          0 HIT:          0 MISS:          0 MSHR_MERGE:          0
cpu0->cpu0_ITLB PREFETCH     ACCESS:          0 HIT:          0 MISS:          0 MSHR_MERGE:          0
cpu0->cpu0_ITLB WRITE        ACCESS:          0 HIT:          0 MISS:          0 MSHR_MERGE:          0
cpu0->cpu0_ITLB TRANSLATION  ACCESS:          0 HIT:          0 MISS:          0 MSHR_MERGE:          0
cpu0->cpu0_ITLB PREFETCH REQUESTED:          0 ISSUED:          0 USEFUL:          0 USELESS:          0
cpu0->cpu0_ITLB AVERAGE MISS LATENCY: 593.9 cycles
cpu0_ITLB COHERENCE INVALIDATIONS:          0
cpu0_ITLB COHERENCE WRITE-HIT OTHER-SHARER EVENTS:          0
cpu0->cpu0_DTLB TOTAL        ACCESS:   99625341 HIT:   94726597 MISS:    4898744 MSHR_MERGE:     203699
cpu0->cpu0_DTLB LOAD         ACCESS:   99625341 HIT:   94726597 MISS:    4898744 MSHR_MERGE:     203699
cpu0->cpu0_DTLB RFO          ACCESS:          0 HIT:          0 MISS:          0 MSHR_MERGE:          0
cpu0->cpu0_DTLB PREFETCH     ACCESS:          0 HIT:          0 MISS:          0 MSHR_MERGE:          0
cpu0->cpu0_DTLB WRITE        ACCESS:          0 HIT:          0 MISS:          0 MSHR_MERGE:          0
cpu0->cpu0_DTLB TRANSLATION  ACCESS:          0 HIT:          0 MISS:          0 MSHR_MERGE:          0
cpu0->cpu0_DTLB PREFETCH REQUESTED:          0 ISSUED:          0 USEFUL:          0 USELESS:          0
cpu0->cpu0_DTLB AVERAGE MISS LATENCY: 28.37 cycles
cpu0_DTLB COHERENCE INVALIDATIONS:          0
cpu0_DTLB COHERENCE WRITE-HIT OTHER-SHARER EVENTS:          0
cpu0->LLC TOTAL        ACCESS:   24257991 HIT:    9293484 MISS:   14964507 MSHR_MERGE:    5829708
cpu0->LLC LOAD         ACCESS:   14600592 HIT:    5791196 MISS:    8809396 MSHR_MERGE:    4610745
cpu0->LLC RFO          ACCESS:    2950911 HIT:     680492 MISS:    2270419 MSHR_MERGE:    1218963
cpu0->LLC PREFETCH     ACCESS:          0 HIT:          0 MISS:          0 MSHR_MERGE:          0
cpu0->LLC WRITE        ACCESS:    6473839 HIT:    2820333 MISS:    3653506 MSHR_MERGE:          0
cpu0->LLC TRANSLATION  ACCESS:     232649 HIT:       1463 MISS:     231186 MSHR_MERGE:          0
cpu0->LLC PREFETCH REQUESTED:          0 ISSUED:          0 USEFUL:          0 USELESS:          0
cpu0->LLC AVERAGE MISS LATENCY: 620.6 cycles
cpu1->LLC TOTAL        ACCESS:    7728649 HIT:    2484900 MISS:    5243749 MSHR_MERGE:    2485706
cpu1->LLC LOAD         ACCESS:    7681240 HIT:    2484809 MISS:    5196431 MSHR_MERGE:    2485706
cpu1->LLC RFO          ACCESS:          0 HIT:          0 MISS:          0 MSHR_MERGE:          0
cpu1->LLC PREFETCH     ACCESS:          0 HIT:          0 MISS:          0 MSHR_MERGE:          0
cpu1->LLC WRITE        ACCESS:          0 HIT:          0 MISS:          0 MSHR_MERGE:          0
cpu1->LLC TRANSLATION  ACCESS:      47409 HIT:         91 MISS:      47318 MSHR_MERGE:          0
cpu1->LLC PREFETCH REQUESTED:          0 ISSUED:          0 USEFUL:          0 USELESS:          0
cpu1->LLC AVERAGE MISS LATENCY: 2394 cycles
cpu8->LLC TOTAL        ACCESS:   24252072 HIT:    9345452 MISS:   14906620 MSHR_MERGE:    5140004
cpu8->LLC LOAD         ACCESS:   14595433 HIT:    5790345 MISS:    8805088 MSHR_MERGE:    4111522
cpu8->LLC RFO          ACCESS:    2952039 HIT:     682473 MISS:    2269566 MSHR_MERGE:    1028482
cpu8->LLC PREFETCH     ACCESS:          0 HIT:          0 MISS:          0 MSHR_MERGE:          0
cpu8->LLC WRITE        ACCESS:    6471833 HIT:    2871120 MISS:    3600713 MSHR_MERGE:          0
cpu8->LLC TRANSLATION  ACCESS:     232767 HIT:       1514 MISS:     231253 MSHR_MERGE:          0
cpu8->LLC PREFETCH REQUESTED:          0 ISSUED:          0 USEFUL:          0 USELESS:          0
cpu8->LLC AVERAGE MISS LATENCY: 671.7 cycles
cpu9->LLC TOTAL        ACCESS:    7728823 HIT:    2484426 MISS:    5244397 MSHR_MERGE:    2697430
cpu9->LLC LOAD         ACCESS:    7681408 HIT:    2484344 MISS:    5197064 MSHR_MERGE:    2697430
cpu9->LLC RFO          ACCESS:          0 HIT:          0 MISS:          0 MSHR_MERGE:          0
cpu9->LLC PREFETCH     ACCESS:          0 HIT:          0 MISS:          0 MSHR_MERGE:          0
cpu9->LLC WRITE        ACCESS:          0 HIT:          0 MISS:          0 MSHR_MERGE:          0
cpu9->LLC TRANSLATION  ACCESS:      47415 HIT:         82 MISS:      47333 MSHR_MERGE:          0
cpu9->LLC PREFETCH REQUESTED:          0 ISSUED:          0 USEFUL:          0 USELESS:          0
cpu9->LLC AVERAGE MISS LATENCY: 2210 cycles
LLC COHERENCE INVALIDATIONS:    6938219
LLC COHERENCE WRITE-HIT OTHER-SHARER EVENTS:    5655433
LLC SHARER HIST TOTAL:      387302736
LLC SHARER HIST[ 1]:       65339628  (16.870%)
LLC SHARER HIST[ 2]:      132380876  (34.180%)
LLC SHARER HIST[ 3]:       23024395  ( 5.945%)
LLC SHARER HIST[ 4]:      162278244  (41.900%)
LLC SHARER HIST[ 5]:          37822  ( 0.010%)
LLC SHARER HIST[ 6]:         148768  ( 0.038%)
LLC SHARER HIST[ 7]:          97091  ( 0.025%)
LLC SHARER HIST[ 8]:         371816  ( 0.096%)
LLC SHARER HIST[ 9]:          48366  ( 0.012%)
LLC SHARER HIST[10]:         215564  ( 0.056%)
LLC SHARER HIST[11]:          67255  ( 0.017%)
LLC SHARER HIST[12]:         265434  ( 0.069%)
LLC SHARER HIST[13]:          85434  ( 0.022%)
LLC SHARER HIST[14]:         673909  ( 0.174%)
LLC SHARER HIST[15]:         399702  ( 0.103%)
LLC SHARER HIST[16]:        1868432  ( 0.482%)

DRAM Statistics

Channel 0 RQ ROW_BUFFER_HIT:     587788
  ROW_BUFFER_MISS:   16333077
  AVG DBUS CONGESTED CYCLE: 7.328
Channel 0 WQ ROW_BUFFER_HIT:     883333
  ROW_BUFFER_MISS:    6425743
  FULL:      17989
Channel 0 REFRESHES ISSUED:      58897

VMEM ALIASED FILLS (cross-CPU shared-page hits): 383647
