[VMEM] WARNING: physical memory size is smaller than virtual memory size.

*** ChampSim Multicore Out-of-Order Simulator ***
Warmup Instructions: 50000000
Simulation Instructions: 100000000
Number of CPUs: 16
Page size: 4096

Off-chip DRAM Size: 16 GiB Channels: 1 Width: 64-bit Data Rate: 3205 MT/s
Heartbeat CPU 4 instructions: 10000001 cycles: 2508565 heartbeat IPC: 3.986 cumulative IPC: 3.986 (Simulation time: 00 hr 17 min 44 sec)
Heartbeat CPU 13 instructions: 10000003 cycles: 2508660 heartbeat IPC: 3.986 cumulative IPC: 3.986 (Simulation time: 00 hr 17 min 44 sec)
Heartbeat CPU 5 instructions: 10000003 cycles: 2508682 heartbeat IPC: 3.986 cumulative IPC: 3.986 (Simulation time: 00 hr 17 min 44 sec)
Heartbeat CPU 12 instructions: 10000001 cycles: 2508754 heartbeat IPC: 3.986 cumulative IPC: 3.986 (Simulation time: 00 hr 17 min 44 sec)
Heartbeat CPU 11 instructions: 10000001 cycles: 2508794 heartbeat IPC: 3.986 cumulative IPC: 3.986 (Simulation time: 00 hr 17 min 44 sec)
Heartbeat CPU 3 instructions: 10000001 cycles: 2508795 heartbeat IPC: 3.986 cumulative IPC: 3.986 (Simulation time: 00 hr 17 min 44 sec)
Heartbeat CPU 14 instructions: 10000000 cycles: 2509012 heartbeat IPC: 3.986 cumulative IPC: 3.986 (Simulation time: 00 hr 17 min 44 sec)
Heartbeat CPU 6 instructions: 10000002 cycles: 2509013 heartbeat IPC: 3.986 cumulative IPC: 3.986 (Simulation time: 00 hr 17 min 44 sec)
Heartbeat CPU 7 instructions: 10000002 cycles: 2509062 heartbeat IPC: 3.986 cumulative IPC: 3.986 (Simulation time: 00 hr 17 min 44 sec)
Heartbeat CPU 15 instructions: 10000003 cycles: 2509122 heartbeat IPC: 3.985 cumulative IPC: 3.985 (Simulation time: 00 hr 17 min 44 sec)
Heartbeat CPU 2 instructions: 10000003 cycles: 2509620 heartbeat IPC: 3.985 cumulative IPC: 3.985 (Simulation time: 00 hr 17 min 44 sec)
Heartbeat CPU 10 instructions: 10000003 cycles: 2509812 heartbeat IPC: 3.984 cumulative IPC: 3.984 (Simulation time: 00 hr 17 min 44 sec)
Heartbeat CPU 1 instructions: 10000001 cycles: 4567607 heartbeat IPC: 2.189 cumulative IPC: 2.189 (Simulation time: 00 hr 31 min 30 sec)
Heartbeat CPU 9 instructions: 10000001 cycles: 4567740 heartbeat IPC: 2.189 cumulative IPC: 2.189 (Simulation time: 00 hr 31 min 30 sec)
Heartbeat CPU 4 instructions: 20000004 cycles: 5008909 heartbeat IPC: 3.999 cumulative IPC: 3.993 (Simulation time: 00 hr 34 min 20 sec)
Heartbeat CPU 13 instructions: 20000006 cycles: 5008995 heartbeat IPC: 3.999 cumulative IPC: 3.993 (Simulation time: 00 hr 34 min 20 sec)
Heartbeat CPU 11 instructions: 20000004 cycles: 5009013 heartbeat IPC: 4 cumulative IPC: 3.993 (Simulation time: 00 hr 34 min 20 sec)
Heartbeat CPU 3 instructions: 20000004 cycles: 5009014 heartbeat IPC: 4 cumulative IPC: 3.993 (Simulation time: 00 hr 34 min 20 sec)
Heartbeat CPU 5 instructions: 20000005 cycles: 5009022 heartbeat IPC: 3.999 cumulative IPC: 3.993 (Simulation time: 00 hr 34 min 20 sec)
Heartbeat CPU 12 instructions: 20000004 cycles: 5009099 heartbeat IPC: 3.999 cumulative IPC: 3.993 (Simulation time: 00 hr 34 min 20 sec)
Heartbeat CPU 14 instructions: 20000001 cycles: 5009230 heartbeat IPC: 4 cumulative IPC: 3.993 (Simulation time: 00 hr 34 min 20 sec)
Heartbeat CPU 6 instructions: 20000005 cycles: 5009233 heartbeat IPC: 4 cumulative IPC: 3.993 (Simulation time: 00 hr 34 min 20 sec)
Heartbeat CPU 7 instructions: 20000003 cycles: 5009283 heartbeat IPC: 4 cumulative IPC: 3.993 (Simulation time: 00 hr 34 min 20 sec)
Heartbeat CPU 15 instructions: 20000003 cycles: 5009340 heartbeat IPC: 4 cumulative IPC: 3.993 (Simulation time: 00 hr 34 min 20 sec)
Heartbeat CPU 2 instructions: 20000003 cycles: 5010460 heartbeat IPC: 3.999 cumulative IPC: 3.992 (Simulation time: 00 hr 34 min 21 sec)
Heartbeat CPU 10 instructions: 20000003 cycles: 5010646 heartbeat IPC: 3.999 cumulative IPC: 3.992 (Simulation time: 00 hr 34 min 21 sec)
Heartbeat CPU 4 instructions: 30000004 cycles: 7508909 heartbeat IPC: 4 cumulative IPC: 3.995 (Simulation time: 00 hr 51 min 46 sec)
Heartbeat CPU 13 instructions: 30000006 cycles: 7508995 heartbeat IPC: 4 cumulative IPC: 3.995 (Simulation time: 00 hr 51 min 46 sec)
Heartbeat CPU 11 instructions: 30000004 cycles: 7509013 heartbeat IPC: 4 cumulative IPC: 3.995 (Simulation time: 00 hr 51 min 46 sec)
Heartbeat CPU 3 instructions: 30000004 cycles: 7509014 heartbeat IPC: 4 cumulative IPC: 3.995 (Simulation time: 00 hr 51 min 46 sec)
Heartbeat CPU 5 instructions: 30000005 cycles: 7509022 heartbeat IPC: 4 cumulative IPC: 3.995 (Simulation time: 00 hr 51 min 46 sec)
Heartbeat CPU 12 instructions: 30000004 cycles: 7509099 heartbeat IPC: 4 cumulative IPC: 3.995 (Simulation time: 00 hr 51 min 46 sec)
Heartbeat CPU 14 instructions: 30000001 cycles: 7509230 heartbeat IPC: 4 cumulative IPC: 3.995 (Simulation time: 00 hr 51 min 46 sec)
Heartbeat CPU 6 instructions: 30000005 cycles: 7509233 heartbeat IPC: 4 cumulative IPC: 3.995 (Simulation time: 00 hr 51 min 46 sec)
Heartbeat CPU 7 instructions: 30000003 cycles: 7509283 heartbeat IPC: 4 cumulative IPC: 3.995 (Simulation time: 00 hr 51 min 46 sec)
Heartbeat CPU 15 instructions: 30000003 cycles: 7509340 heartbeat IPC: 4 cumulative IPC: 3.995 (Simulation time: 00 hr 51 min 46 sec)
Heartbeat CPU 2 instructions: 30000003 cycles: 7510460 heartbeat IPC: 4 cumulative IPC: 3.994 (Simulation time: 00 hr 51 min 46 sec)
Heartbeat CPU 10 instructions: 30000003 cycles: 7510646 heartbeat IPC: 4 cumulative IPC: 3.994 (Simulation time: 00 hr 51 min 46 sec)
Heartbeat CPU 9 instructions: 20000004 cycles: 9011989 heartbeat IPC: 2.25 cumulative IPC: 2.219 (Simulation time: 01 hr 02 min 11 sec)
Heartbeat CPU 1 instructions: 20000001 cycles: 9011996 heartbeat IPC: 2.25 cumulative IPC: 2.219 (Simulation time: 01 hr 02 min 11 sec)
Heartbeat CPU 4 instructions: 40000004 cycles: 10008909 heartbeat IPC: 4 cumulative IPC: 3.996 (Simulation time: 01 hr 09 min 31 sec)
Heartbeat CPU 13 instructions: 40000006 cycles: 10008995 heartbeat IPC: 4 cumulative IPC: 3.996 (Simulation time: 01 hr 09 min 31 sec)
Heartbeat CPU 11 instructions: 40000004 cycles: 10009013 heartbeat IPC: 4 cumulative IPC: 3.996 (Simulation time: 01 hr 09 min 31 sec)
Heartbeat CPU 3 instructions: 40000004 cycles: 10009014 heartbeat IPC: 4 cumulative IPC: 3.996 (Simulation time: 01 hr 09 min 31 sec)
Heartbeat CPU 5 instructions: 40000005 cycles: 10009022 heartbeat IPC: 4 cumulative IPC: 3.996 (Simulation time: 01 hr 09 min 31 sec)
Heartbeat CPU 12 instructions: 40000004 cycles: 10009099 heartbeat IPC: 4 cumulative IPC: 3.996 (Simulation time: 01 hr 09 min 31 sec)
Heartbeat CPU 14 instructions: 40000001 cycles: 10009230 heartbeat IPC: 4 cumulative IPC: 3.996 (Simulation time: 01 hr 09 min 31 sec)
Heartbeat CPU 6 instructions: 40000005 cycles: 10009233 heartbeat IPC: 4 cumulative IPC: 3.996 (Simulation time: 01 hr 09 min 31 sec)
Heartbeat CPU 7 instructions: 40000003 cycles: 10009283 heartbeat IPC: 4 cumulative IPC: 3.996 (Simulation time: 01 hr 09 min 32 sec)
Heartbeat CPU 15 instructions: 40000003 cycles: 10009340 heartbeat IPC: 4 cumulative IPC: 3.996 (Simulation time: 01 hr 09 min 32 sec)
Heartbeat CPU 2 instructions: 40000003 cycles: 10010460 heartbeat IPC: 4 cumulative IPC: 3.996 (Simulation time: 01 hr 09 min 32 sec)
Heartbeat CPU 10 instructions: 40000003 cycles: 10010646 heartbeat IPC: 4 cumulative IPC: 3.996 (Simulation time: 01 hr 09 min 32 sec)
*** Reached end of trace: (2, "/home/harshraj/COALESCE-Hashed-Perceptron-Cache-Replacement-Policy/simulator/traces/ocean_8t/ocean2.champsimtrace")
*** Reached end of trace: (10, "/home/harshraj/COALESCE-Hashed-Perceptron-Cache-Replacement-Policy/simulator/traces/ocean_8t/ocean2.champsimtrace")
*** Reached end of trace: (13, "/home/harshraj/COALESCE-Hashed-Perceptron-Cache-Replacement-Policy/simulator/traces/ocean_8t/ocean5.champsimtrace")
*** Reached end of trace: (5, "/home/harshraj/COALESCE-Hashed-Perceptron-Cache-Replacement-Policy/simulator/traces/ocean_8t/ocean5.champsimtrace")
*** Reached end of trace: (4, "/home/harshraj/COALESCE-Hashed-Perceptron-Cache-Replacement-Policy/simulator/traces/ocean_8t/ocean4.champsimtrace")
*** Reached end of trace: (12, "/home/harshraj/COALESCE-Hashed-Perceptron-Cache-Replacement-Policy/simulator/traces/ocean_8t/ocean4.champsimtrace")
*** Reached end of trace: (14, "/home/harshraj/COALESCE-Hashed-Perceptron-Cache-Replacement-Policy/simulator/traces/ocean_8t/ocean6.champsimtrace")
*** Reached end of trace: (6, "/home/harshraj/COALESCE-Hashed-Perceptron-Cache-Replacement-Policy/simulator/traces/ocean_8t/ocean6.champsimtrace")
*** Reached end of trace: (11, "/home/harshraj/COALESCE-Hashed-Perceptron-Cache-Replacement-Policy/simulator/traces/ocean_8t/ocean3.champsimtrace")
*** Reached end of trace: (3, "/home/harshraj/COALESCE-Hashed-Perceptron-Cache-Replacement-Policy/simulator/traces/ocean_8t/ocean3.champsimtrace")
*** Reached end of trace: (7, "/home/harshraj/COALESCE-Hashed-Perceptron-Cache-Replacement-Policy/simulator/traces/ocean_8t/ocean7.champsimtrace")
*** Reached end of trace: (15, "/home/harshraj/COALESCE-Hashed-Perceptron-Cache-Replacement-Policy/simulator/traces/ocean_8t/ocean7.champsimtrace")
Warmup finished CPU 4 instructions: 50000002 cycles: 12510913 cumulative IPC: 3.997 (Simulation time: 01 hr 26 min 46 sec)
Heartbeat CPU 4 instructions: 50000006 cycles: 12510914 heartbeat IPC: 3.997 cumulative IPC: 3.997 (Simulation time: 01 hr 26 min 46 sec)
Warmup finished CPU 13 instructions: 50000001 cycles: 12510998 cumulative IPC: 3.996 (Simulation time: 01 hr 26 min 46 sec)
Heartbeat CPU 13 instructions: 50000009 cycles: 12511000 heartbeat IPC: 3.997 cumulative IPC: 3.996 (Simulation time: 01 hr 26 min 46 sec)
Warmup finished CPU 11 instructions: 50000000 cycles: 12511014 cumulative IPC: 3.996 (Simulation time: 01 hr 26 min 46 sec)
Heartbeat CPU 11 instructions: 50000004 cycles: 12511015 heartbeat IPC: 3.997 cumulative IPC: 3.996 (Simulation time: 01 hr 26 min 46 sec)
Warmup finished CPU 3 instructions: 50000000 cycles: 12511015 cumulative IPC: 3.996 (Simulation time: 01 hr 26 min 46 sec)
Heartbeat CPU 3 instructions: 50000004 cycles: 12511016 heartbeat IPC: 3.997 cumulative IPC: 3.996 (Simulation time: 01 hr 26 min 46 sec)
Warmup finished CPU 5 instructions: 50000001 cycles: 12511028 cumulative IPC: 3.996 (Simulation time: 01 hr 26 min 46 sec)
Heartbeat CPU 5 instructions: 50000005 cycles: 12511029 heartbeat IPC: 3.997 cumulative IPC: 3.996 (Simulation time: 01 hr 26 min 46 sec)
Warmup finished CPU 12 instructions: 50000002 cycles: 12511102 cumulative IPC: 3.996 (Simulation time: 01 hr 26 min 46 sec)
Heartbeat CPU 12 instructions: 50000006 cycles: 12511103 heartbeat IPC: 3.997 cumulative IPC: 3.996 (Simulation time: 01 hr 26 min 46 sec)
Heartbeat CPU 14 instructions: 50000002 cycles: 12511231 heartbeat IPC: 3.997 cumulative IPC: 3.996 (Simulation time: 01 hr 26 min 46 sec)
Warmup finished CPU 14 instructions: 50000002 cycles: 12511231 cumulative IPC: 3.996 (Simulation time: 01 hr 26 min 46 sec)
Warmup finished CPU 6 instructions: 50000002 cycles: 12511240 cumulative IPC: 3.996 (Simulation time: 01 hr 26 min 46 sec)
Heartbeat CPU 6 instructions: 50000006 cycles: 12511241 heartbeat IPC: 3.997 cumulative IPC: 3.996 (Simulation time: 01 hr 26 min 46 sec)
Heartbeat CPU 7 instructions: 50000003 cycles: 12511265 heartbeat IPC: 3.997 cumulative IPC: 3.996 (Simulation time: 01 hr 26 min 46 sec)
Warmup finished CPU 7 instructions: 50000003 cycles: 12511265 cumulative IPC: 3.996 (Simulation time: 01 hr 26 min 46 sec)
Heartbeat CPU 15 instructions: 50000003 cycles: 12511340 heartbeat IPC: 3.997 cumulative IPC: 3.996 (Simulation time: 01 hr 26 min 47 sec)
Warmup finished CPU 15 instructions: 50000003 cycles: 12511340 cumulative IPC: 3.996 (Simulation time: 01 hr 26 min 47 sec)
Warmup finished CPU 2 instructions: 50000002 cycles: 12512865 cumulative IPC: 3.996 (Simulation time: 01 hr 26 min 47 sec)
Heartbeat CPU 2 instructions: 50000006 cycles: 12512866 heartbeat IPC: 3.996 cumulative IPC: 3.996 (Simulation time: 01 hr 26 min 47 sec)
Warmup finished CPU 10 instructions: 50000002 cycles: 12513048 cumulative IPC: 3.996 (Simulation time: 01 hr 26 min 47 sec)
Heartbeat CPU 10 instructions: 50000006 cycles: 12513049 heartbeat IPC: 3.996 cumulative IPC: 3.996 (Simulation time: 01 hr 26 min 47 sec)
Heartbeat CPU 1 instructions: 30000002 cycles: 14316742 heartbeat IPC: 1.885 cumulative IPC: 2.095 (Simulation time: 01 hr 38 min 59 sec)
Heartbeat CPU 9 instructions: 30000006 cycles: 14316743 heartbeat IPC: 1.885 cumulative IPC: 2.095 (Simulation time: 01 hr 38 min 59 sec)
Heartbeat CPU 4 instructions: 60000006 cycles: 15010914 heartbeat IPC: 4 cumulative IPC: 3.997 (Simulation time: 01 hr 43 min 24 sec)
Heartbeat CPU 13 instructions: 60000009 cycles: 15011000 heartbeat IPC: 4 cumulative IPC: 3.997 (Simulation time: 01 hr 43 min 24 sec)
Heartbeat CPU 11 instructions: 60000004 cycles: 15011015 heartbeat IPC: 4 cumulative IPC: 3.997 (Simulation time: 01 hr 43 min 24 sec)
Heartbeat CPU 3 instructions: 60000004 cycles: 15011016 heartbeat IPC: 4 cumulative IPC: 3.997 (Simulation time: 01 hr 43 min 24 sec)
Heartbeat CPU 5 instructions: 60000005 cycles: 15011029 heartbeat IPC: 4 cumulative IPC: 3.997 (Simulation time: 01 hr 43 min 24 sec)
Heartbeat CPU 12 instructions: 60000006 cycles: 15011103 heartbeat IPC: 4 cumulative IPC: 3.997 (Simulation time: 01 hr 43 min 24 sec)
Heartbeat CPU 14 instructions: 60000002 cycles: 15011231 heartbeat IPC: 4 cumulative IPC: 3.997 (Simulation time: 01 hr 43 min 24 sec)
Heartbeat CPU 6 instructions: 60000006 cycles: 15011241 heartbeat IPC: 4 cumulative IPC: 3.997 (Simulation time: 01 hr 43 min 24 sec)
Heartbeat CPU 7 instructions: 60000003 cycles: 15011265 heartbeat IPC: 4 cumulative IPC: 3.997 (Simulation time: 01 hr 43 min 24 sec)
Heartbeat CPU 15 instructions: 60000003 cycles: 15011340 heartbeat IPC: 4 cumulative IPC: 3.997 (Simulation time: 01 hr 43 min 24 sec)
Heartbeat CPU 2 instructions: 60000006 cycles: 15012866 heartbeat IPC: 4 cumulative IPC: 3.997 (Simulation time: 01 hr 43 min 25 sec)
Heartbeat CPU 10 instructions: 60000006 cycles: 15013049 heartbeat IPC: 4 cumulative IPC: 3.997 (Simulation time: 01 hr 43 min 25 sec)
Heartbeat CPU 4 instructions: 70000006 cycles: 17510914 heartbeat IPC: 4 cumulative IPC: 3.998 (Simulation time: 02 hr 00 min 35 sec)
Heartbeat CPU 13 instructions: 70000009 cycles: 17511000 heartbeat IPC: 4 cumulative IPC: 3.997 (Simulation time: 02 hr 00 min 35 sec)
Heartbeat CPU 11 instructions: 70000004 cycles: 17511015 heartbeat IPC: 4 cumulative IPC: 3.997 (Simulation time: 02 hr 00 min 35 sec)
Heartbeat CPU 3 instructions: 70000004 cycles: 17511016 heartbeat IPC: 4 cumulative IPC: 3.997 (Simulation time: 02 hr 00 min 35 sec)
Heartbeat CPU 5 instructions: 70000005 cycles: 17511029 heartbeat IPC: 4 cumulative IPC: 3.997 (Simulation time: 02 hr 00 min 35 sec)
Heartbeat CPU 12 instructions: 70000006 cycles: 17511103 heartbeat IPC: 4 cumulative IPC: 3.997 (Simulation time: 02 hr 00 min 35 sec)
Heartbeat CPU 14 instructions: 70000002 cycles: 17511231 heartbeat IPC: 4 cumulative IPC: 3.997 (Simulation time: 02 hr 00 min 35 sec)
Heartbeat CPU 6 instructions: 70000006 cycles: 17511241 heartbeat IPC: 4 cumulative IPC: 3.997 (Simulation time: 02 hr 00 min 35 sec)
Heartbeat CPU 7 instructions: 70000003 cycles: 17511265 heartbeat IPC: 4 cumulative IPC: 3.997 (Simulation time: 02 hr 00 min 35 sec)
Heartbeat CPU 15 instructions: 70000003 cycles: 17511340 heartbeat IPC: 4 cumulative IPC: 3.997 (Simulation time: 02 hr 00 min 35 sec)
Heartbeat CPU 2 instructions: 70000006 cycles: 17512866 heartbeat IPC: 4 cumulative IPC: 3.997 (Simulation time: 02 hr 00 min 36 sec)
Heartbeat CPU 10 instructions: 70000006 cycles: 17513049 heartbeat IPC: 4 cumulative IPC: 3.997 (Simulation time: 02 hr 00 min 36 sec)
Heartbeat CPU 9 instructions: 40000008 cycles: 18549477 heartbeat IPC: 2.363 cumulative IPC: 2.156 (Simulation time: 02 hr 08 min 08 sec)
Heartbeat CPU 1 instructions: 40000003 cycles: 18549478 heartbeat IPC: 2.363 cumulative IPC: 2.156 (Simulation time: 02 hr 08 min 08 sec)
Heartbeat CPU 4 instructions: 80000006 cycles: 20010914 heartbeat IPC: 4 cumulative IPC: 3.998 (Simulation time: 02 hr 17 min 43 sec)
Heartbeat CPU 13 instructions: 80000009 cycles: 20011000 heartbeat IPC: 4 cumulative IPC: 3.998 (Simulation time: 02 hr 17 min 43 sec)
Heartbeat CPU 11 instructions: 80000004 cycles: 20011015 heartbeat IPC: 4 cumulative IPC: 3.998 (Simulation time: 02 hr 17 min 43 sec)
Heartbeat CPU 3 instructions: 80000004 cycles: 20011016 heartbeat IPC: 4 cumulative IPC: 3.998 (Simulation time: 02 hr 17 min 43 sec)
Heartbeat CPU 5 instructions: 80000005 cycles: 20011029 heartbeat IPC: 4 cumulative IPC: 3.998 (Simulation time: 02 hr 17 min 43 sec)
Heartbeat CPU 12 instructions: 80000006 cycles: 20011103 heartbeat IPC: 4 cumulative IPC: 3.998 (Simulation time: 02 hr 17 min 43 sec)
Heartbeat CPU 14 instructions: 80000002 cycles: 20011231 heartbeat IPC: 4 cumulative IPC: 3.998 (Simulation time: 02 hr 17 min 43 sec)
Heartbeat CPU 6 instructions: 80000006 cycles: 20011241 heartbeat IPC: 4 cumulative IPC: 3.998 (Simulation time: 02 hr 17 min 43 sec)
Heartbeat CPU 7 instructions: 80000003 cycles: 20011265 heartbeat IPC: 4 cumulative IPC: 3.998 (Simulation time: 02 hr 17 min 43 sec)
Heartbeat CPU 15 instructions: 80000003 cycles: 20011340 heartbeat IPC: 4 cumulative IPC: 3.998 (Simulation time: 02 hr 17 min 43 sec)
Heartbeat CPU 2 instructions: 80000006 cycles: 20012866 heartbeat IPC: 4 cumulative IPC: 3.997 (Simulation time: 02 hr 17 min 44 sec)
Heartbeat CPU 10 instructions: 80000006 cycles: 20013049 heartbeat IPC: 4 cumulative IPC: 3.997 (Simulation time: 02 hr 17 min 44 sec)
*** Reached end of trace: (9, "/home/harshraj/COALESCE-Hashed-Perceptron-Cache-Replacement-Policy/simulator/traces/ocean_8t/ocean1.champsimtrace")
*** Reached end of trace: (1, "/home/harshraj/COALESCE-Hashed-Perceptron-Cache-Replacement-Policy/simulator/traces/ocean_8t/ocean1.champsimtrace")
Heartbeat CPU 8 instructions: 10000000 cycles: 20616480 heartbeat IPC: 0.485 cumulative IPC: 0.485 (Simulation time: 02 hr 21 min 52 sec)
Heartbeat CPU 0 instructions: 10000000 cycles: 20616571 heartbeat IPC: 0.485 cumulative IPC: 0.485 (Simulation time: 02 hr 21 min 52 sec)
Warmup finished CPU 1 instructions: 50000002 cycles: 22424436 cumulative IPC: 2.23 (Simulation time: 02 hr 34 min 43 sec)
Heartbeat CPU 1 instructions: 50000006 cycles: 22424437 heartbeat IPC: 2.581 cumulative IPC: 2.23 (Simulation time: 02 hr 34 min 43 sec)
Warmup finished CPU 9 instructions: 50000002 cycles: 22424443 cumulative IPC: 2.23 (Simulation time: 02 hr 34 min 43 sec)
Heartbeat CPU 9 instructions: 50000010 cycles: 22424446 heartbeat IPC: 2.581 cumulative IPC: 2.23 (Simulation time: 02 hr 34 min 43 sec)
Heartbeat CPU 4 instructions: 90000006 cycles: 22510914 heartbeat IPC: 4 cumulative IPC: 3.998 (Simulation time: 02 hr 35 min 19 sec)
Heartbeat CPU 13 instructions: 90000009 cycles: 22511000 heartbeat IPC: 4 cumulative IPC: 3.998 (Simulation time: 02 hr 35 min 19 sec)
Heartbeat CPU 11 instructions: 90000004 cycles: 22511015 heartbeat IPC: 4 cumulative IPC: 3.998 (Simulation time: 02 hr 35 min 19 sec)
Heartbeat CPU 3 instructions: 90000004 cycles: 22511016 heartbeat IPC: 4 cumulative IPC: 3.998 (Simulation time: 02 hr 35 min 19 sec)
Heartbeat CPU 5 instructions: 90000005 cycles: 22511029 heartbeat IPC: 4 cumulative IPC: 3.998 (Simulation time: 02 hr 35 min 19 sec)
Heartbeat CPU 12 instructions: 90000006 cycles: 22511103 heartbeat IPC: 4 cumulative IPC: 3.998 (Simulation time: 02 hr 35 min 19 sec)
Heartbeat CPU 14 instructions: 90000002 cycles: 22511231 heartbeat IPC: 4 cumulative IPC: 3.998 (Simulation time: 02 hr 35 min 19 sec)
Heartbeat CPU 6 instructions: 90000006 cycles: 22511241 heartbeat IPC: 4 cumulative IPC: 3.998 (Simulation time: 02 hr 35 min 19 sec)
Heartbeat CPU 7 instructions: 90000003 cycles: 22511265 heartbeat IPC: 4 cumulative IPC: 3.998 (Simulation time: 02 hr 35 min 19 sec)
Heartbeat CPU 15 instructions: 90000003 cycles: 22511340 heartbeat IPC: 4 cumulative IPC: 3.998 (Simulation time: 02 hr 35 min 19 sec)
Heartbeat CPU 2 instructions: 90000006 cycles: 22512866 heartbeat IPC: 4 cumulative IPC: 3.998 (Simulation time: 02 hr 35 min 20 sec)
Heartbeat CPU 10 instructions: 90000006 cycles: 22513049 heartbeat IPC: 4 cumulative IPC: 3.998 (Simulation time: 02 hr 35 min 20 sec)
*** Reached end of trace: (2, "/home/harshraj/COALESCE-Hashed-Perceptron-Cache-Replacement-Policy/simulator/traces/ocean_8t/ocean2.champsimtrace")
*** Reached end of trace: (10, "/home/harshraj/COALESCE-Hashed-Perceptron-Cache-Replacement-Policy/simulator/traces/ocean_8t/ocean2.champsimtrace")
*** Reached end of trace: (13, "/home/harshraj/COALESCE-Hashed-Perceptron-Cache-Replacement-Policy/simulator/traces/ocean_8t/ocean5.champsimtrace")
*** Reached end of trace: (5, "/home/harshraj/COALESCE-Hashed-Perceptron-Cache-Replacement-Policy/simulator/traces/ocean_8t/ocean5.champsimtrace")
*** Reached end of trace: (4, "/home/harshraj/COALESCE-Hashed-Perceptron-Cache-Replacement-Policy/simulator/traces/ocean_8t/ocean4.champsimtrace")
*** Reached end of trace: (12, "/home/harshraj/COALESCE-Hashed-Perceptron-Cache-Replacement-Policy/simulator/traces/ocean_8t/ocean4.champsimtrace")
*** Reached end of trace: (14, "/home/harshraj/COALESCE-Hashed-Perceptron-Cache-Replacement-Policy/simulator/traces/ocean_8t/ocean6.champsimtrace")
*** Reached end of trace: (6, "/home/harshraj/COALESCE-Hashed-Perceptron-Cache-Replacement-Policy/simulator/traces/ocean_8t/ocean6.champsimtrace")
*** Reached end of trace: (11, "/home/harshraj/COALESCE-Hashed-Perceptron-Cache-Replacement-Policy/simulator/traces/ocean_8t/ocean3.champsimtrace")
*** Reached end of trace: (3, "/home/harshraj/COALESCE-Hashed-Perceptron-Cache-Replacement-Policy/simulator/traces/ocean_8t/ocean3.champsimtrace")
*** Reached end of trace: (7, "/home/harshraj/COALESCE-Hashed-Perceptron-Cache-Replacement-Policy/simulator/traces/ocean_8t/ocean7.champsimtrace")
*** Reached end of trace: (15, "/home/harshraj/COALESCE-Hashed-Perceptron-Cache-Replacement-Policy/simulator/traces/ocean_8t/ocean7.champsimtrace")
Heartbeat CPU 4 instructions: 100000006 cycles: 25010914 heartbeat IPC: 4 cumulative IPC: 3.998 (Simulation time: 02 hr 52 min 20 sec)
Heartbeat CPU 13 instructions: 100000009 cycles: 25011000 heartbeat IPC: 4 cumulative IPC: 3.998 (Simulation time: 02 hr 52 min 20 sec)
Heartbeat CPU 11 instructions: 100000004 cycles: 25011015 heartbeat IPC: 4 cumulative IPC: 3.998 (Simulation time: 02 hr 52 min 20 sec)
Heartbeat CPU 3 instructions: 100000004 cycles: 25011016 heartbeat IPC: 4 cumulative IPC: 3.998 (Simulation time: 02 hr 52 min 20 sec)
Heartbeat CPU 5 instructions: 100000005 cycles: 25011029 heartbeat IPC: 4 cumulative IPC: 3.998 (Simulation time: 02 hr 52 min 20 sec)
Heartbeat CPU 12 instructions: 100000006 cycles: 25011103 heartbeat IPC: 4 cumulative IPC: 3.998 (Simulation time: 02 hr 52 min 20 sec)
Heartbeat CPU 14 instructions: 100000002 cycles: 25011231 heartbeat IPC: 4 cumulative IPC: 3.998 (Simulation time: 02 hr 52 min 20 sec)
Heartbeat CPU 6 instructions: 100000006 cycles: 25011241 heartbeat IPC: 4 cumulative IPC: 3.998 (Simulation time: 02 hr 52 min 20 sec)
Heartbeat CPU 7 instructions: 100000003 cycles: 25011265 heartbeat IPC: 4 cumulative IPC: 3.998 (Simulation time: 02 hr 52 min 20 sec)
Heartbeat CPU 15 instructions: 100000003 cycles: 25011340 heartbeat IPC: 4 cumulative IPC: 3.998 (Simulation time: 02 hr 52 min 20 sec)
Heartbeat CPU 2 instructions: 100000006 cycles: 25012866 heartbeat IPC: 4 cumulative IPC: 3.998 (Simulation time: 02 hr 52 min 21 sec)
Heartbeat CPU 10 instructions: 100000006 cycles: 25013049 heartbeat IPC: 4 cumulative IPC: 3.998 (Simulation time: 02 hr 52 min 21 sec)
Heartbeat CPU 1 instructions: 60000009 cycles: 26526404 heartbeat IPC: 2.438 cumulative IPC: 2.262 (Simulation time: 03 hr 03 min 17 sec)
Heartbeat CPU 9 instructions: 60000013 cycles: 26526410 heartbeat IPC: 2.438 cumulative IPC: 2.262 (Simulation time: 03 hr 03 min 17 sec)
Heartbeat CPU 4 instructions: 110000006 cycles: 27510914 heartbeat IPC: 4 cumulative IPC: 3.998 (Simulation time: 03 hr 09 min 43 sec)
Heartbeat CPU 13 instructions: 110000009 cycles: 27511000 heartbeat IPC: 4 cumulative IPC: 3.998 (Simulation time: 03 hr 09 min 43 sec)
Heartbeat CPU 11 instructions: 110000004 cycles: 27511015 heartbeat IPC: 4 cumulative IPC: 3.998 (Simulation time: 03 hr 09 min 43 sec)
Heartbeat CPU 3 instructions: 110000004 cycles: 27511016 heartbeat IPC: 4 cumulative IPC: 3.998 (Simulation time: 03 hr 09 min 43 sec)
Heartbeat CPU 5 instructions: 110000005 cycles: 27511029 heartbeat IPC: 4 cumulative IPC: 3.998 (Simulation time: 03 hr 09 min 43 sec)
Heartbeat CPU 12 instructions: 110000006 cycles: 27511103 heartbeat IPC: 4 cumulative IPC: 3.998 (Simulation time: 03 hr 09 min 43 sec)
Heartbeat CPU 14 instructions: 110000002 cycles: 27511231 heartbeat IPC: 4 cumulative IPC: 3.998 (Simulation time: 03 hr 09 min 43 sec)
Heartbeat CPU 6 instructions: 110000006 cycles: 27511241 heartbeat IPC: 4 cumulative IPC: 3.998 (Simulation time: 03 hr 09 min 43 sec)
Heartbeat CPU 7 instructions: 110000003 cycles: 27511265 heartbeat IPC: 4 cumulative IPC: 3.998 (Simulation time: 03 hr 09 min 43 sec)
Heartbeat CPU 15 instructions: 110000003 cycles: 27511340 heartbeat IPC: 4 cumulative IPC: 3.998 (Simulation time: 03 hr 09 min 43 sec)
Heartbeat CPU 2 instructions: 110000006 cycles: 27512866 heartbeat IPC: 4 cumulative IPC: 3.998 (Simulation time: 03 hr 09 min 44 sec)
Heartbeat CPU 10 instructions: 110000006 cycles: 27513049 heartbeat IPC: 4 cumulative IPC: 3.998 (Simulation time: 03 hr 09 min 44 sec)
Heartbeat CPU 4 instructions: 120000006 cycles: 30010914 heartbeat IPC: 4 cumulative IPC: 3.999 (Simulation time: 03 hr 26 min 41 sec)
Heartbeat CPU 13 instructions: 120000009 cycles: 30011000 heartbeat IPC: 4 cumulative IPC: 3.999 (Simulation time: 03 hr 26 min 41 sec)
Heartbeat CPU 11 instructions: 120000004 cycles: 30011015 heartbeat IPC: 4 cumulative IPC: 3.999 (Simulation time: 03 hr 26 min 41 sec)
Heartbeat CPU 3 instructions: 120000004 cycles: 30011016 heartbeat IPC: 4 cumulative IPC: 3.999 (Simulation time: 03 hr 26 min 41 sec)
Heartbeat CPU 5 instructions: 120000005 cycles: 30011029 heartbeat IPC: 4 cumulative IPC: 3.999 (Simulation time: 03 hr 26 min 41 sec)
Heartbeat CPU 12 instructions: 120000006 cycles: 30011103 heartbeat IPC: 4 cumulative IPC: 3.999 (Simulation time: 03 hr 26 min 41 sec)
Heartbeat CPU 14 instructions: 120000002 cycles: 30011231 heartbeat IPC: 4 cumulative IPC: 3.999 (Simulation time: 03 hr 26 min 41 sec)
Heartbeat CPU 6 instructions: 120000006 cycles: 30011241 heartbeat IPC: 4 cumulative IPC: 3.999 (Simulation time: 03 hr 26 min 41 sec)
Heartbeat CPU 7 instructions: 120000003 cycles: 30011265 heartbeat IPC: 4 cumulative IPC: 3.998 (Simulation time: 03 hr 26 min 41 sec)
Heartbeat CPU 15 instructions: 120000003 cycles: 30011340 heartbeat IPC: 4 cumulative IPC: 3.998 (Simulation time: 03 hr 26 min 41 sec)
Heartbeat CPU 2 instructions: 120000006 cycles: 30012866 heartbeat IPC: 4 cumulative IPC: 3.998 (Simulation time: 03 hr 26 min 42 sec)
Heartbeat CPU 10 instructions: 120000006 cycles: 30013049 heartbeat IPC: 4 cumulative IPC: 3.998 (Simulation time: 03 hr 26 min 42 sec)
Heartbeat CPU 1 instructions: 70000009 cycles: 30694714 heartbeat IPC: 2.399 cumulative IPC: 2.281 (Simulation time: 03 hr 31 min 51 sec)
Heartbeat CPU 9 instructions: 70000013 cycles: 30694714 heartbeat IPC: 2.399 cumulative IPC: 2.281 (Simulation time: 03 hr 31 min 51 sec)
Heartbeat CPU 4 instructions: 130000006 cycles: 32510914 heartbeat IPC: 4 cumulative IPC: 3.999 (Simulation time: 03 hr 44 min 47 sec)
Heartbeat CPU 13 instructions: 130000009 cycles: 32511000 heartbeat IPC: 4 cumulative IPC: 3.999 (Simulation time: 03 hr 44 min 47 sec)
Heartbeat CPU 11 instructions: 130000004 cycles: 32511015 heartbeat IPC: 4 cumulative IPC: 3.999 (Simulation time: 03 hr 44 min 47 sec)
Heartbeat CPU 3 instructions: 130000004 cycles: 32511016 heartbeat IPC: 4 cumulative IPC: 3.999 (Simulation time: 03 hr 44 min 47 sec)
Heartbeat CPU 5 instructions: 130000005 cycles: 32511029 heartbeat IPC: 4 cumulative IPC: 3.999 (Simulation time: 03 hr 44 min 47 sec)
Heartbeat CPU 12 instructions: 130000006 cycles: 32511103 heartbeat IPC: 4 cumulative IPC: 3.999 (Simulation time: 03 hr 44 min 47 sec)
Heartbeat CPU 14 instructions: 130000002 cycles: 32511231 heartbeat IPC: 4 cumulative IPC: 3.999 (Simulation time: 03 hr 44 min 47 sec)
Heartbeat CPU 6 instructions: 130000006 cycles: 32511241 heartbeat IPC: 4 cumulative IPC: 3.999 (Simulation time: 03 hr 44 min 47 sec)
Heartbeat CPU 7 instructions: 130000003 cycles: 32511265 heartbeat IPC: 4 cumulative IPC: 3.999 (Simulation time: 03 hr 44 min 47 sec)
Heartbeat CPU 15 instructions: 130000003 cycles: 32511340 heartbeat IPC: 4 cumulative IPC: 3.999 (Simulation time: 03 hr 44 min 47 sec)
Heartbeat CPU 2 instructions: 130000006 cycles: 32512866 heartbeat IPC: 4 cumulative IPC: 3.998 (Simulation time: 03 hr 44 min 48 sec)
Heartbeat CPU 10 instructions: 130000006 cycles: 32513049 heartbeat IPC: 4 cumulative IPC: 3.998 (Simulation time: 03 hr 44 min 48 sec)
*** Reached end of trace: (2, "/home/harshraj/COALESCE-Hashed-Perceptron-Cache-Replacement-Policy/simulator/traces/ocean_8t/ocean2.champsimtrace")
*** Reached end of trace: (10, "/home/harshraj/COALESCE-Hashed-Perceptron-Cache-Replacement-Policy/simulator/traces/ocean_8t/ocean2.champsimtrace")
*** Reached end of trace: (13, "/home/harshraj/COALESCE-Hashed-Perceptron-Cache-Replacement-Policy/simulator/traces/ocean_8t/ocean5.champsimtrace")
*** Reached end of trace: (5, "/home/harshraj/COALESCE-Hashed-Perceptron-Cache-Replacement-Policy/simulator/traces/ocean_8t/ocean5.champsimtrace")
*** Reached end of trace: (4, "/home/harshraj/COALESCE-Hashed-Perceptron-Cache-Replacement-Policy/simulator/traces/ocean_8t/ocean4.champsimtrace")
*** Reached end of trace: (12, "/home/harshraj/COALESCE-Hashed-Perceptron-Cache-Replacement-Policy/simulator/traces/ocean_8t/ocean4.champsimtrace")
*** Reached end of trace: (14, "/home/harshraj/COALESCE-Hashed-Perceptron-Cache-Replacement-Policy/simulator/traces/ocean_8t/ocean6.champsimtrace")
*** Reached end of trace: (6, "/home/harshraj/COALESCE-Hashed-Perceptron-Cache-Replacement-Policy/simulator/traces/ocean_8t/ocean6.champsimtrace")
*** Reached end of trace: (11, "/home/harshraj/COALESCE-Hashed-Perceptron-Cache-Replacement-Policy/simulator/traces/ocean_8t/ocean3.champsimtrace")
*** Reached end of trace: (3, "/home/harshraj/COALESCE-Hashed-Perceptron-Cache-Replacement-Policy/simulator/traces/ocean_8t/ocean3.champsimtrace")
*** Reached end of trace: (7, "/home/harshraj/COALESCE-Hashed-Perceptron-Cache-Replacement-Policy/simulator/traces/ocean_8t/ocean7.champsimtrace")
*** Reached end of trace: (15, "/home/harshraj/COALESCE-Hashed-Perceptron-Cache-Replacement-Policy/simulator/traces/ocean_8t/ocean7.champsimtrace")
Heartbeat CPU 4 instructions: 140000006 cycles: 35010914 heartbeat IPC: 4 cumulative IPC: 3.999 (Simulation time: 04 hr 01 min 04 sec)
Heartbeat CPU 13 instructions: 140000009 cycles: 35011000 heartbeat IPC: 4 cumulative IPC: 3.999 (Simulation time: 04 hr 01 min 04 sec)
Heartbeat CPU 11 instructions: 140000004 cycles: 35011015 heartbeat IPC: 4 cumulative IPC: 3.999 (Simulation time: 04 hr 01 min 04 sec)
Heartbeat CPU 3 instructions: 140000004 cycles: 35011016 heartbeat IPC: 4 cumulative IPC: 3.999 (Simulation time: 04 hr 01 min 04 sec)
Heartbeat CPU 5 instructions: 140000005 cycles: 35011029 heartbeat IPC: 4 cumulative IPC: 3.999 (Simulation time: 04 hr 01 min 04 sec)
Heartbeat CPU 12 instructions: 140000006 cycles: 35011103 heartbeat IPC: 4 cumulative IPC: 3.999 (Simulation time: 04 hr 01 min 04 sec)
Heartbeat CPU 14 instructions: 140000002 cycles: 35011231 heartbeat IPC: 4 cumulative IPC: 3.999 (Simulation time: 04 hr 01 min 04 sec)
Heartbeat CPU 6 instructions: 140000006 cycles: 35011241 heartbeat IPC: 4 cumulative IPC: 3.999 (Simulation time: 04 hr 01 min 04 sec)
Heartbeat CPU 7 instructions: 140000003 cycles: 35011265 heartbeat IPC: 4 cumulative IPC: 3.999 (Simulation time: 04 hr 01 min 04 sec)
Heartbeat CPU 15 instructions: 140000003 cycles: 35011340 heartbeat IPC: 4 cumulative IPC: 3.999 (Simulation time: 04 hr 01 min 04 sec)
Heartbeat CPU 2 instructions: 140000006 cycles: 35012866 heartbeat IPC: 4 cumulative IPC: 3.999 (Simulation time: 04 hr 01 min 05 sec)
Heartbeat CPU 10 instructions: 140000006 cycles: 35013049 heartbeat IPC: 4 cumulative IPC: 3.999 (Simulation time: 04 hr 01 min 05 sec)
Heartbeat CPU 9 instructions: 80000013 cycles: 36249819 heartbeat IPC: 1.8 cumulative IPC: 2.207 (Simulation time: 04 hr 09 min 52 sec)
Heartbeat CPU 1 instructions: 80000009 cycles: 36249821 heartbeat IPC: 1.8 cumulative IPC: 2.207 (Simulation time: 04 hr 09 min 52 sec)
Heartbeat CPU 4 instructions: 150000006 cycles: 37510914 heartbeat IPC: 4 cumulative IPC: 3.999 (Simulation time: 04 hr 18 min 49 sec)
Heartbeat CPU 13 instructions: 150000009 cycles: 37511000 heartbeat IPC: 4 cumulative IPC: 3.999 (Simulation time: 04 hr 18 min 49 sec)
Heartbeat CPU 11 instructions: 150000004 cycles: 37511015 heartbeat IPC: 4 cumulative IPC: 3.999 (Simulation time: 04 hr 18 min 49 sec)
Heartbeat CPU 3 instructions: 150000004 cycles: 37511016 heartbeat IPC: 4 cumulative IPC: 3.999 (Simulation time: 04 hr 18 min 49 sec)
Heartbeat CPU 5 instructions: 150000005 cycles: 37511029 heartbeat IPC: 4 cumulative IPC: 3.999 (Simulation time: 04 hr 18 min 49 sec)
Heartbeat CPU 12 instructions: 150000006 cycles: 37511103 heartbeat IPC: 4 cumulative IPC: 3.999 (Simulation time: 04 hr 18 min 49 sec)
Heartbeat CPU 14 instructions: 150000002 cycles: 37511231 heartbeat IPC: 4 cumulative IPC: 3.999 (Simulation time: 04 hr 18 min 49 sec)
Heartbeat CPU 6 instructions: 150000006 cycles: 37511241 heartbeat IPC: 4 cumulative IPC: 3.999 (Simulation time: 04 hr 18 min 49 sec)
Heartbeat CPU 7 instructions: 150000003 cycles: 37511265 heartbeat IPC: 4 cumulative IPC: 3.999 (Simulation time: 04 hr 18 min 49 sec)
Heartbeat CPU 15 instructions: 150000003 cycles: 37511340 heartbeat IPC: 4 cumulative IPC: 3.999 (Simulation time: 04 hr 18 min 49 sec)
Heartbeat CPU 2 instructions: 150000006 cycles: 37512866 heartbeat IPC: 4 cumulative IPC: 3.999 (Simulation time: 04 hr 18 min 50 sec)
Heartbeat CPU 10 instructions: 150000006 cycles: 37513049 heartbeat IPC: 4 cumulative IPC: 3.999 (Simulation time: 04 hr 18 min 50 sec)
Heartbeat CPU 1 instructions: 90000010 cycles: 39675271 heartbeat IPC: 2.919 cumulative IPC: 2.268 (Simulation time: 04 hr 33 min 22 sec)
Heartbeat CPU 9 instructions: 90000015 cycles: 39675274 heartbeat IPC: 2.919 cumulative IPC: 2.268 (Simulation time: 04 hr 33 min 22 sec)
Heartbeat CPU 4 instructions: 160000006 cycles: 40010914 heartbeat IPC: 4 cumulative IPC: 3.999 (Simulation time: 04 hr 36 min 00 sec)
Heartbeat CPU 13 instructions: 160000009 cycles: 40011000 heartbeat IPC: 4 cumulative IPC: 3.999 (Simulation time: 04 hr 36 min 00 sec)
Heartbeat CPU 11 instructions: 160000004 cycles: 40011015 heartbeat IPC: 4 cumulative IPC: 3.999 (Simulation time: 04 hr 36 min 00 sec)
Heartbeat CPU 3 instructions: 160000004 cycles: 40011016 heartbeat IPC: 4 cumulative IPC: 3.999 (Simulation time: 04 hr 36 min 00 sec)
Heartbeat CPU 5 instructions: 160000005 cycles: 40011029 heartbeat IPC: 4 cumulative IPC: 3.999 (Simulation time: 04 hr 36 min 00 sec)
Heartbeat CPU 12 instructions: 160000006 cycles: 40011103 heartbeat IPC: 4 cumulative IPC: 3.999 (Simulation time: 04 hr 36 min 00 sec)
Heartbeat CPU 14 instructions: 160000002 cycles: 40011231 heartbeat IPC: 4 cumulative IPC: 3.999 (Simulation time: 04 hr 36 min 00 sec)
Heartbeat CPU 6 instructions: 160000006 cycles: 40011241 heartbeat IPC: 4 cumulative IPC: 3.999 (Simulation time: 04 hr 36 min 00 sec)
Heartbeat CPU 7 instructions: 160000003 cycles: 40011265 heartbeat IPC: 4 cumulative IPC: 3.999 (Simulation time: 04 hr 36 min 00 sec)
Heartbeat CPU 15 instructions: 160000003 cycles: 40011340 heartbeat IPC: 4 cumulative IPC: 3.999 (Simulation time: 04 hr 36 min 00 sec)
Heartbeat CPU 2 instructions: 160000006 cycles: 40012866 heartbeat IPC: 4 cumulative IPC: 3.999 (Simulation time: 04 hr 36 min 01 sec)
Heartbeat CPU 10 instructions: 160000006 cycles: 40013049 heartbeat IPC: 4 cumulative IPC: 3.999 (Simulation time: 04 hr 36 min 01 sec)
*** Reached end of trace: (9, "/home/harshraj/COALESCE-Hashed-Perceptron-Cache-Replacement-Policy/simulator/traces/ocean_8t/ocean1.champsimtrace")
*** Reached end of trace: (1, "/home/harshraj/COALESCE-Hashed-Perceptron-Cache-Replacement-Policy/simulator/traces/ocean_8t/ocean1.champsimtrace")
Heartbeat CPU 8 instructions: 20000004 cycles: 41737593 heartbeat IPC: 0.4735 cumulative IPC: 0.4792 (Simulation time: 04 hr 48 min 20 sec)
Heartbeat CPU 0 instructions: 20000003 cycles: 41738325 heartbeat IPC: 0.4734 cumulative IPC: 0.4792 (Simulation time: 04 hr 48 min 21 sec)
Heartbeat CPU 4 instructions: 170000006 cycles: 42510914 heartbeat IPC: 4 cumulative IPC: 3.999 (Simulation time: 04 hr 54 min 07 sec)
Heartbeat CPU 13 instructions: 170000009 cycles: 42511000 heartbeat IPC: 4 cumulative IPC: 3.999 (Simulation time: 04 hr 54 min 07 sec)
Heartbeat CPU 11 instructions: 170000004 cycles: 42511015 heartbeat IPC: 4 cumulative IPC: 3.999 (Simulation time: 04 hr 54 min 07 sec)
Heartbeat CPU 3 instructions: 170000004 cycles: 42511016 heartbeat IPC: 4 cumulative IPC: 3.999 (Simulation time: 04 hr 54 min 07 sec)
Heartbeat CPU 5 instructions: 170000005 cycles: 42511029 heartbeat IPC: 4 cumulative IPC: 3.999 (Simulation time: 04 hr 54 min 07 sec)
Heartbeat CPU 12 instructions: 170000006 cycles: 42511103 heartbeat IPC: 4 cumulative IPC: 3.999 (Simulation time: 04 hr 54 min 07 sec)
Heartbeat CPU 14 instructions: 170000002 cycles: 42511231 heartbeat IPC: 4 cumulative IPC: 3.999 (Simulation time: 04 hr 54 min 07 sec)
Heartbeat CPU 6 instructions: 170000006 cycles: 42511241 heartbeat IPC: 4 cumulative IPC: 3.999 (Simulation time: 04 hr 54 min 07 sec)
Heartbeat CPU 7 instructions: 170000003 cycles: 42511265 heartbeat IPC: 4 cumulative IPC: 3.999 (Simulation time: 04 hr 54 min 07 sec)
Heartbeat CPU 15 instructions: 170000003 cycles: 42511340 heartbeat IPC: 4 cumulative IPC: 3.999 (Simulation time: 04 hr 54 min 07 sec)
Heartbeat CPU 2 instructions: 170000006 cycles: 42512866 heartbeat IPC: 4 cumulative IPC: 3.999 (Simulation time: 04 hr 54 min 08 sec)
Heartbeat CPU 10 instructions: 170000006 cycles: 42513049 heartbeat IPC: 4 cumulative IPC: 3.999 (Simulation time: 04 hr 54 min 08 sec)
Heartbeat CPU 1 instructions: 100000013 cycles: 43767837 heartbeat IPC: 2.443 cumulative IPC: 2.285 (Simulation time: 05 hr 01 min 46 sec)
Heartbeat CPU 9 instructions: 100000017 cycles: 43768482 heartbeat IPC: 2.443 cumulative IPC: 2.285 (Simulation time: 05 hr 01 min 46 sec)
Heartbeat CPU 4 instructions: 180000006 cycles: 45010914 heartbeat IPC: 4 cumulative IPC: 3.999 (Simulation time: 05 hr 10 min 38 sec)
Heartbeat CPU 13 instructions: 180000009 cycles: 45011000 heartbeat IPC: 4 cumulative IPC: 3.999 (Simulation time: 05 hr 10 min 38 sec)
Heartbeat CPU 11 instructions: 180000004 cycles: 45011015 heartbeat IPC: 4 cumulative IPC: 3.999 (Simulation time: 05 hr 10 min 38 sec)
Heartbeat CPU 3 instructions: 180000004 cycles: 45011016 heartbeat IPC: 4 cumulative IPC: 3.999 (Simulation time: 05 hr 10 min 38 sec)
Heartbeat CPU 5 instructions: 180000005 cycles: 45011029 heartbeat IPC: 4 cumulative IPC: 3.999 (Simulation time: 05 hr 10 min 38 sec)
Heartbeat CPU 12 instructions: 180000006 cycles: 45011103 heartbeat IPC: 4 cumulative IPC: 3.999 (Simulation time: 05 hr 10 min 38 sec)
Heartbeat CPU 14 instructions: 180000002 cycles: 45011231 heartbeat IPC: 4 cumulative IPC: 3.999 (Simulation time: 05 hr 10 min 38 sec)
Heartbeat CPU 6 instructions: 180000006 cycles: 45011241 heartbeat IPC: 4 cumulative IPC: 3.999 (Simulation time: 05 hr 10 min 38 sec)
Heartbeat CPU 7 instructions: 180000003 cycles: 45011265 heartbeat IPC: 4 cumulative IPC: 3.999 (Simulation time: 05 hr 10 min 38 sec)
Heartbeat CPU 15 instructions: 180000003 cycles: 45011340 heartbeat IPC: 4 cumulative IPC: 3.999 (Simulation time: 05 hr 10 min 38 sec)
Heartbeat CPU 2 instructions: 180000006 cycles: 45012866 heartbeat IPC: 4 cumulative IPC: 3.999 (Simulation time: 05 hr 10 min 39 sec)
Heartbeat CPU 10 instructions: 180000006 cycles: 45013049 heartbeat IPC: 4 cumulative IPC: 3.999 (Simulation time: 05 hr 10 min 39 sec)
*** Reached end of trace: (2, "/home/harshraj/COALESCE-Hashed-Perceptron-Cache-Replacement-Policy/simulator/traces/ocean_8t/ocean2.champsimtrace")
*** Reached end of trace: (10, "/home/harshraj/COALESCE-Hashed-Perceptron-Cache-Replacement-Policy/simulator/traces/ocean_8t/ocean2.champsimtrace")
*** Reached end of trace: (13, "/home/harshraj/COALESCE-Hashed-Perceptron-Cache-Replacement-Policy/simulator/traces/ocean_8t/ocean5.champsimtrace")
*** Reached end of trace: (5, "/home/harshraj/COALESCE-Hashed-Perceptron-Cache-Replacement-Policy/simulator/traces/ocean_8t/ocean5.champsimtrace")
*** Reached end of trace: (4, "/home/harshraj/COALESCE-Hashed-Perceptron-Cache-Replacement-Policy/simulator/traces/ocean_8t/ocean4.champsimtrace")
*** Reached end of trace: (12, "/home/harshraj/COALESCE-Hashed-Perceptron-Cache-Replacement-Policy/simulator/traces/ocean_8t/ocean4.champsimtrace")
*** Reached end of trace: (14, "/home/harshraj/COALESCE-Hashed-Perceptron-Cache-Replacement-Policy/simulator/traces/ocean_8t/ocean6.champsimtrace")
*** Reached end of trace: (6, "/home/harshraj/COALESCE-Hashed-Perceptron-Cache-Replacement-Policy/simulator/traces/ocean_8t/ocean6.champsimtrace")
*** Reached end of trace: (11, "/home/harshraj/COALESCE-Hashed-Perceptron-Cache-Replacement-Policy/simulator/traces/ocean_8t/ocean3.champsimtrace")
*** Reached end of trace: (3, "/home/harshraj/COALESCE-Hashed-Perceptron-Cache-Replacement-Policy/simulator/traces/ocean_8t/ocean3.champsimtrace")
*** Reached end of trace: (7, "/home/harshraj/COALESCE-Hashed-Perceptron-Cache-Replacement-Policy/simulator/traces/ocean_8t/ocean7.champsimtrace")
*** Reached end of trace: (15, "/home/harshraj/COALESCE-Hashed-Perceptron-Cache-Replacement-Policy/simulator/traces/ocean_8t/ocean7.champsimtrace")
Heartbeat CPU 4 instructions: 190000006 cycles: 47510914 heartbeat IPC: 4 cumulative IPC: 3.999 (Simulation time: 05 hr 28 min 22 sec)
Heartbeat CPU 13 instructions: 190000009 cycles: 47511000 heartbeat IPC: 4 cumulative IPC: 3.999 (Simulation time: 05 hr 28 min 22 sec)
Heartbeat CPU 11 instructions: 190000004 cycles: 47511015 heartbeat IPC: 4 cumulative IPC: 3.999 (Simulation time: 05 hr 28 min 22 sec)
Heartbeat CPU 3 instructions: 190000004 cycles: 47511016 heartbeat IPC: 4 cumulative IPC: 3.999 (Simulation time: 05 hr 28 min 22 sec)
Heartbeat CPU 5 instructions: 190000005 cycles: 47511029 heartbeat IPC: 4 cumulative IPC: 3.999 (Simulation time: 05 hr 28 min 22 sec)
Heartbeat CPU 12 instructions: 190000006 cycles: 47511103 heartbeat IPC: 4 cumulative IPC: 3.999 (Simulation time: 05 hr 28 min 22 sec)
Heartbeat CPU 14 instructions: 190000002 cycles: 47511231 heartbeat IPC: 4 cumulative IPC: 3.999 (Simulation time: 05 hr 28 min 22 sec)
Heartbeat CPU 6 instructions: 190000006 cycles: 47511241 heartbeat IPC: 4 cumulative IPC: 3.999 (Simulation time: 05 hr 28 min 22 sec)
Heartbeat CPU 7 instructions: 190000003 cycles: 47511265 heartbeat IPC: 4 cumulative IPC: 3.999 (Simulation time: 05 hr 28 min 22 sec)
Heartbeat CPU 15 instructions: 190000003 cycles: 47511340 heartbeat IPC: 4 cumulative IPC: 3.999 (Simulation time: 05 hr 28 min 22 sec)
Heartbeat CPU 2 instructions: 190000006 cycles: 47512866 heartbeat IPC: 4 cumulative IPC: 3.999 (Simulation time: 05 hr 28 min 23 sec)
Heartbeat CPU 10 instructions: 190000006 cycles: 47513049 heartbeat IPC: 4 cumulative IPC: 3.999 (Simulation time: 05 hr 28 min 23 sec)
Heartbeat CPU 1 instructions: 110000014 cycles: 47870933 heartbeat IPC: 2.437 cumulative IPC: 2.298 (Simulation time: 05 hr 31 min 02 sec)
Heartbeat CPU 9 instructions: 110000018 cycles: 47870935 heartbeat IPC: 2.438 cumulative IPC: 2.298 (Simulation time: 05 hr 31 min 02 sec)
Heartbeat CPU 4 instructions: 200000006 cycles: 50010914 heartbeat IPC: 4 cumulative IPC: 3.999 (Simulation time: 05 hr 46 min 04 sec)
Heartbeat CPU 13 instructions: 200000009 cycles: 50011000 heartbeat IPC: 4 cumulative IPC: 3.999 (Simulation time: 05 hr 46 min 04 sec)
Heartbeat CPU 11 instructions: 200000004 cycles: 50011015 heartbeat IPC: 4 cumulative IPC: 3.999 (Simulation time: 05 hr 46 min 04 sec)
Heartbeat CPU 3 instructions: 200000004 cycles: 50011016 heartbeat IPC: 4 cumulative IPC: 3.999 (Simulation time: 05 hr 46 min 04 sec)
Heartbeat CPU 5 instructions: 200000005 cycles: 50011029 heartbeat IPC: 4 cumulative IPC: 3.999 (Simulation time: 05 hr 46 min 04 sec)
Heartbeat CPU 12 instructions: 200000006 cycles: 50011103 heartbeat IPC: 4 cumulative IPC: 3.999 (Simulation time: 05 hr 46 min 04 sec)
Heartbeat CPU 14 instructions: 200000002 cycles: 50011231 heartbeat IPC: 4 cumulative IPC: 3.999 (Simulation time: 05 hr 46 min 04 sec)
Heartbeat CPU 6 instructions: 200000006 cycles: 50011241 heartbeat IPC: 4 cumulative IPC: 3.999 (Simulation time: 05 hr 46 min 04 sec)
Heartbeat CPU 7 instructions: 200000003 cycles: 50011265 heartbeat IPC: 4 cumulative IPC: 3.999 (Simulation time: 05 hr 46 min 04 sec)
Heartbeat CPU 15 instructions: 200000003 cycles: 50011340 heartbeat IPC: 4 cumulative IPC: 3.999 (Simulation time: 05 hr 46 min 04 sec)
Heartbeat CPU 2 instructions: 200000006 cycles: 50012866 heartbeat IPC: 4 cumulative IPC: 3.999 (Simulation time: 05 hr 46 min 05 sec)
Heartbeat CPU 10 instructions: 200000006 cycles: 50013049 heartbeat IPC: 4 cumulative IPC: 3.999 (Simulation time: 05 hr 46 min 05 sec)
Heartbeat CPU 4 instructions: 210000006 cycles: 52510914 heartbeat IPC: 4 cumulative IPC: 3.999 (Simulation time: 06 hr 02 min 34 sec)
Heartbeat CPU 13 instructions: 210000009 cycles: 52511000 heartbeat IPC: 4 cumulative IPC: 3.999 (Simulation time: 06 hr 02 min 34 sec)
Heartbeat CPU 11 instructions: 210000004 cycles: 52511015 heartbeat IPC: 4 cumulative IPC: 3.999 (Simulation time: 06 hr 02 min 34 sec)
Heartbeat CPU 3 instructions: 210000004 cycles: 52511016 heartbeat IPC: 4 cumulative IPC: 3.999 (Simulation time: 06 hr 02 min 34 sec)
Heartbeat CPU 5 instructions: 210000005 cycles: 52511029 heartbeat IPC: 4 cumulative IPC: 3.999 (Simulation time: 06 hr 02 min 34 sec)
Heartbeat CPU 12 instructions: 210000006 cycles: 52511103 heartbeat IPC: 4 cumulative IPC: 3.999 (Simulation time: 06 hr 02 min 34 sec)
Heartbeat CPU 14 instructions: 210000002 cycles: 52511231 heartbeat IPC: 4 cumulative IPC: 3.999 (Simulation time: 06 hr 02 min 34 sec)
Heartbeat CPU 6 instructions: 210000006 cycles: 52511241 heartbeat IPC: 4 cumulative IPC: 3.999 (Simulation time: 06 hr 02 min 34 sec)
Heartbeat CPU 7 instructions: 210000003 cycles: 52511265 heartbeat IPC: 4 cumulative IPC: 3.999 (Simulation time: 06 hr 02 min 34 sec)
Heartbeat CPU 15 instructions: 210000003 cycles: 52511340 heartbeat IPC: 4 cumulative IPC: 3.999 (Simulation time: 06 hr 02 min 34 sec)
Heartbeat CPU 2 instructions: 210000006 cycles: 52512866 heartbeat IPC: 4 cumulative IPC: 3.999 (Simulation time: 06 hr 02 min 34 sec)
Heartbeat CPU 10 instructions: 210000006 cycles: 52513049 heartbeat IPC: 4 cumulative IPC: 3.999 (Simulation time: 06 hr 02 min 35 sec)
Heartbeat CPU 1 instructions: 120000014 cycles: 52798053 heartbeat IPC: 2.03 cumulative IPC: 2.273 (Simulation time: 06 hr 04 min 35 sec)
Heartbeat CPU 9 instructions: 120000018 cycles: 52798060 heartbeat IPC: 2.03 cumulative IPC: 2.273 (Simulation time: 06 hr 04 min 35 sec)
Heartbeat CPU 4 instructions: 220000006 cycles: 55010914 heartbeat IPC: 4 cumulative IPC: 3.999 (Simulation time: 06 hr 20 min 31 sec)
Heartbeat CPU 13 instructions: 220000009 cycles: 55011000 heartbeat IPC: 4 cumulative IPC: 3.999 (Simulation time: 06 hr 20 min 31 sec)
Heartbeat CPU 11 instructions: 220000004 cycles: 55011015 heartbeat IPC: 4 cumulative IPC: 3.999 (Simulation time: 06 hr 20 min 31 sec)
Heartbeat CPU 3 instructions: 220000004 cycles: 55011016 heartbeat IPC: 4 cumulative IPC: 3.999 (Simulation time: 06 hr 20 min 31 sec)
Heartbeat CPU 5 instructions: 220000005 cycles: 55011029 heartbeat IPC: 4 cumulative IPC: 3.999 (Simulation time: 06 hr 20 min 31 sec)
Heartbeat CPU 12 instructions: 220000006 cycles: 55011103 heartbeat IPC: 4 cumulative IPC: 3.999 (Simulation time: 06 hr 20 min 31 sec)
Heartbeat CPU 14 instructions: 220000002 cycles: 55011231 heartbeat IPC: 4 cumulative IPC: 3.999 (Simulation time: 06 hr 20 min 31 sec)
Heartbeat CPU 6 instructions: 220000006 cycles: 55011241 heartbeat IPC: 4 cumulative IPC: 3.999 (Simulation time: 06 hr 20 min 31 sec)
Heartbeat CPU 7 instructions: 220000003 cycles: 55011265 heartbeat IPC: 4 cumulative IPC: 3.999 (Simulation time: 06 hr 20 min 31 sec)
Heartbeat CPU 15 instructions: 220000003 cycles: 55011340 heartbeat IPC: 4 cumulative IPC: 3.999 (Simulation time: 06 hr 20 min 31 sec)
Heartbeat CPU 2 instructions: 220000006 cycles: 55012866 heartbeat IPC: 4 cumulative IPC: 3.999 (Simulation time: 06 hr 20 min 32 sec)
Heartbeat CPU 10 instructions: 220000006 cycles: 55013049 heartbeat IPC: 4 cumulative IPC: 3.999 (Simulation time: 06 hr 20 min 32 sec)
*** Reached end of trace: (2, "/home/harshraj/COALESCE-Hashed-Perceptron-Cache-Replacement-Policy/simulator/traces/ocean_8t/ocean2.champsimtrace")
*** Reached end of trace: (10, "/home/harshraj/COALESCE-Hashed-Perceptron-Cache-Replacement-Policy/simulator/traces/ocean_8t/ocean2.champsimtrace")
*** Reached end of trace: (13, "/home/harshraj/COALESCE-Hashed-Perceptron-Cache-Replacement-Policy/simulator/traces/ocean_8t/ocean5.champsimtrace")
*** Reached end of trace: (5, "/home/harshraj/COALESCE-Hashed-Perceptron-Cache-Replacement-Policy/simulator/traces/ocean_8t/ocean5.champsimtrace")
*** Reached end of trace: (4, "/home/harshraj/COALESCE-Hashed-Perceptron-Cache-Replacement-Policy/simulator/traces/ocean_8t/ocean4.champsimtrace")
*** Reached end of trace: (12, "/home/harshraj/COALESCE-Hashed-Perceptron-Cache-Replacement-Policy/simulator/traces/ocean_8t/ocean4.champsimtrace")
*** Reached end of trace: (14, "/home/harshraj/COALESCE-Hashed-Perceptron-Cache-Replacement-Policy/simulator/traces/ocean_8t/ocean6.champsimtrace")
*** Reached end of trace: (6, "/home/harshraj/COALESCE-Hashed-Perceptron-Cache-Replacement-Policy/simulator/traces/ocean_8t/ocean6.champsimtrace")
*** Reached end of trace: (11, "/home/harshraj/COALESCE-Hashed-Perceptron-Cache-Replacement-Policy/simulator/traces/ocean_8t/ocean3.champsimtrace")
*** Reached end of trace: (3, "/home/harshraj/COALESCE-Hashed-Perceptron-Cache-Replacement-Policy/simulator/traces/ocean_8t/ocean3.champsimtrace")
*** Reached end of trace: (7, "/home/harshraj/COALESCE-Hashed-Perceptron-Cache-Replacement-Policy/simulator/traces/ocean_8t/ocean7.champsimtrace")
*** Reached end of trace: (15, "/home/harshraj/COALESCE-Hashed-Perceptron-Cache-Replacement-Policy/simulator/traces/ocean_8t/ocean7.champsimtrace")
Heartbeat CPU 1 instructions: 130000015 cycles: 57279710 heartbeat IPC: 2.231 cumulative IPC: 2.27 (Simulation time: 06 hr 36 min 34 sec)
Heartbeat CPU 9 instructions: 130000019 cycles: 57279710 heartbeat IPC: 2.231 cumulative IPC: 2.27 (Simulation time: 06 hr 36 min 34 sec)
Heartbeat CPU 4 instructions: 230000006 cycles: 57510914 heartbeat IPC: 4 cumulative IPC: 3.999 (Simulation time: 06 hr 38 min 21 sec)
Heartbeat CPU 13 instructions: 230000009 cycles: 57511000 heartbeat IPC: 4 cumulative IPC: 3.999 (Simulation time: 06 hr 38 min 22 sec)
Heartbeat CPU 11 instructions: 230000004 cycles: 57511015 heartbeat IPC: 4 cumulative IPC: 3.999 (Simulation time: 06 hr 38 min 22 sec)
Heartbeat CPU 3 instructions: 230000004 cycles: 57511016 heartbeat IPC: 4 cumulative IPC: 3.999 (Simulation time: 06 hr 38 min 22 sec)
Heartbeat CPU 5 instructions: 230000005 cycles: 57511029 heartbeat IPC: 4 cumulative IPC: 3.999 (Simulation time: 06 hr 38 min 22 sec)
Heartbeat CPU 12 instructions: 230000006 cycles: 57511103 heartbeat IPC: 4 cumulative IPC: 3.999 (Simulation time: 06 hr 38 min 22 sec)
Heartbeat CPU 14 instructions: 230000002 cycles: 57511231 heartbeat IPC: 4 cumulative IPC: 3.999 (Simulation time: 06 hr 38 min 22 sec)
Heartbeat CPU 6 instructions: 230000006 cycles: 57511241 heartbeat IPC: 4 cumulative IPC: 3.999 (Simulation time: 06 hr 38 min 22 sec)
Heartbeat CPU 7 instructions: 230000003 cycles: 57511265 heartbeat IPC: 4 cumulative IPC: 3.999 (Simulation time: 06 hr 38 min 22 sec)
Heartbeat CPU 15 instructions: 230000003 cycles: 57511340 heartbeat IPC: 4 cumulative IPC: 3.999 (Simulation time: 06 hr 38 min 22 sec)
Heartbeat CPU 2 instructions: 230000006 cycles: 57512866 heartbeat IPC: 4 cumulative IPC: 3.999 (Simulation time: 06 hr 38 min 22 sec)
Heartbeat CPU 10 instructions: 230000006 cycles: 57513049 heartbeat IPC: 4 cumulative IPC: 3.999 (Simulation time: 06 hr 38 min 23 sec)
*** Reached end of trace: (9, "/home/harshraj/COALESCE-Hashed-Perceptron-Cache-Replacement-Policy/simulator/traces/ocean_8t/ocean1.champsimtrace")
*** Reached end of trace: (1, "/home/harshraj/COALESCE-Hashed-Perceptron-Cache-Replacement-Policy/simulator/traces/ocean_8t/ocean1.champsimtrace")
Heartbeat CPU 4 instructions: 240000006 cycles: 60010914 heartbeat IPC: 4 cumulative IPC: 3.999 (Simulation time: 06 hr 56 min 26 sec)
Heartbeat CPU 13 instructions: 240000009 cycles: 60011000 heartbeat IPC: 4 cumulative IPC: 3.999 (Simulation time: 06 hr 56 min 26 sec)
Heartbeat CPU 11 instructions: 240000004 cycles: 60011015 heartbeat IPC: 4 cumulative IPC: 3.999 (Simulation time: 06 hr 56 min 26 sec)
Heartbeat CPU 3 instructions: 240000004 cycles: 60011016 heartbeat IPC: 4 cumulative IPC: 3.999 (Simulation time: 06 hr 56 min 26 sec)
Heartbeat CPU 5 instructions: 240000005 cycles: 60011029 heartbeat IPC: 4 cumulative IPC: 3.999 (Simulation time: 06 hr 56 min 26 sec)
Heartbeat CPU 12 instructions: 240000006 cycles: 60011103 heartbeat IPC: 4 cumulative IPC: 3.999 (Simulation time: 06 hr 56 min 26 sec)
Heartbeat CPU 14 instructions: 240000002 cycles: 60011231 heartbeat IPC: 4 cumulative IPC: 3.999 (Simulation time: 06 hr 56 min 26 sec)
Heartbeat CPU 6 instructions: 240000006 cycles: 60011241 heartbeat IPC: 4 cumulative IPC: 3.999 (Simulation time: 06 hr 56 min 26 sec)
Heartbeat CPU 7 instructions: 240000003 cycles: 60011265 heartbeat IPC: 4 cumulative IPC: 3.999 (Simulation time: 06 hr 56 min 26 sec)
Heartbeat CPU 15 instructions: 240000003 cycles: 60011340 heartbeat IPC: 4 cumulative IPC: 3.999 (Simulation time: 06 hr 56 min 26 sec)
Heartbeat CPU 2 instructions: 240000006 cycles: 60012866 heartbeat IPC: 4 cumulative IPC: 3.999 (Simulation time: 06 hr 56 min 27 sec)
Heartbeat CPU 10 instructions: 240000006 cycles: 60013049 heartbeat IPC: 4 cumulative IPC: 3.999 (Simulation time: 06 hr 56 min 27 sec)
Heartbeat CPU 1 instructions: 140000015 cycles: 61008999 heartbeat IPC: 2.681 cumulative IPC: 2.295 (Simulation time: 07 hr 03 min 17 sec)
Heartbeat CPU 9 instructions: 140000019 cycles: 61009031 heartbeat IPC: 2.681 cumulative IPC: 2.295 (Simulation time: 07 hr 03 min 17 sec)
Heartbeat CPU 8 instructions: 30000005 cycles: 61797028 heartbeat IPC: 0.4985 cumulative IPC: 0.4855 (Simulation time: 07 hr 07 min 47 sec)
Heartbeat CPU 0 instructions: 30000005 cycles: 61807212 heartbeat IPC: 0.4983 cumulative IPC: 0.4854 (Simulation time: 07 hr 07 min 50 sec)
Heartbeat CPU 4 instructions: 250000006 cycles: 62510914 heartbeat IPC: 4 cumulative IPC: 3.999 (Simulation time: 07 hr 12 min 51 sec)
Heartbeat CPU 13 instructions: 250000009 cycles: 62511000 heartbeat IPC: 4 cumulative IPC: 3.999 (Simulation time: 07 hr 12 min 51 sec)
Heartbeat CPU 11 instructions: 250000004 cycles: 62511015 heartbeat IPC: 4 cumulative IPC: 3.999 (Simulation time: 07 hr 12 min 51 sec)
Heartbeat CPU 3 instructions: 250000004 cycles: 62511016 heartbeat IPC: 4 cumulative IPC: 3.999 (Simulation time: 07 hr 12 min 51 sec)
Heartbeat CPU 5 instructions: 250000005 cycles: 62511029 heartbeat IPC: 4 cumulative IPC: 3.999 (Simulation time: 07 hr 12 min 51 sec)
Heartbeat CPU 12 instructions: 250000006 cycles: 62511103 heartbeat IPC: 4 cumulative IPC: 3.999 (Simulation time: 07 hr 12 min 51 sec)
Heartbeat CPU 14 instructions: 250000002 cycles: 62511231 heartbeat IPC: 4 cumulative IPC: 3.999 (Simulation time: 07 hr 12 min 51 sec)
Heartbeat CPU 6 instructions: 250000006 cycles: 62511241 heartbeat IPC: 4 cumulative IPC: 3.999 (Simulation time: 07 hr 12 min 51 sec)
Heartbeat CPU 7 instructions: 250000003 cycles: 62511265 heartbeat IPC: 4 cumulative IPC: 3.999 (Simulation time: 07 hr 12 min 51 sec)
Heartbeat CPU 15 instructions: 250000003 cycles: 62511340 heartbeat IPC: 4 cumulative IPC: 3.999 (Simulation time: 07 hr 12 min 51 sec)
Heartbeat CPU 2 instructions: 250000006 cycles: 62512866 heartbeat IPC: 4 cumulative IPC: 3.999 (Simulation time: 07 hr 12 min 52 sec)
Heartbeat CPU 10 instructions: 250000006 cycles: 62513049 heartbeat IPC: 4 cumulative IPC: 3.999 (Simulation time: 07 hr 12 min 52 sec)
Heartbeat CPU 4 instructions: 260000006 cycles: 65010914 heartbeat IPC: 4 cumulative IPC: 3.999 (Simulation time: 07 hr 31 min 22 sec)
Heartbeat CPU 13 instructions: 260000009 cycles: 65011000 heartbeat IPC: 4 cumulative IPC: 3.999 (Simulation time: 07 hr 31 min 22 sec)
Heartbeat CPU 11 instructions: 260000004 cycles: 65011015 heartbeat IPC: 4 cumulative IPC: 3.999 (Simulation time: 07 hr 31 min 22 sec)
Heartbeat CPU 3 instructions: 260000004 cycles: 65011016 heartbeat IPC: 4 cumulative IPC: 3.999 (Simulation time: 07 hr 31 min 22 sec)
Heartbeat CPU 5 instructions: 260000005 cycles: 65011029 heartbeat IPC: 4 cumulative IPC: 3.999 (Simulation time: 07 hr 31 min 22 sec)
Heartbeat CPU 12 instructions: 260000006 cycles: 65011103 heartbeat IPC: 4 cumulative IPC: 3.999 (Simulation time: 07 hr 31 min 22 sec)
Heartbeat CPU 14 instructions: 260000002 cycles: 65011231 heartbeat IPC: 4 cumulative IPC: 3.999 (Simulation time: 07 hr 31 min 22 sec)
Heartbeat CPU 6 instructions: 260000006 cycles: 65011241 heartbeat IPC: 4 cumulative IPC: 3.999 (Simulation time: 07 hr 31 min 22 sec)
Heartbeat CPU 7 instructions: 260000003 cycles: 65011265 heartbeat IPC: 4 cumulative IPC: 3.999 (Simulation time: 07 hr 31 min 22 sec)
Heartbeat CPU 15 instructions: 260000003 cycles: 65011340 heartbeat IPC: 4 cumulative IPC: 3.999 (Simulation time: 07 hr 31 min 22 sec)
Heartbeat CPU 2 instructions: 260000006 cycles: 65012866 heartbeat IPC: 4 cumulative IPC: 3.999 (Simulation time: 07 hr 31 min 23 sec)
Heartbeat CPU 10 instructions: 260000006 cycles: 65013049 heartbeat IPC: 4 cumulative IPC: 3.999 (Simulation time: 07 hr 31 min 23 sec)
Heartbeat CPU 1 instructions: 150000015 cycles: 65210479 heartbeat IPC: 2.38 cumulative IPC: 2.3 (Simulation time: 07 hr 33 min 00 sec)
Heartbeat CPU 9 instructions: 150000020 cycles: 65210495 heartbeat IPC: 2.38 cumulative IPC: 2.3 (Simulation time: 07 hr 33 min 00 sec)
Heartbeat CPU 4 instructions: 270000006 cycles: 67510914 heartbeat IPC: 4 cumulative IPC: 3.999 (Simulation time: 07 hr 48 min 41 sec)
Heartbeat CPU 13 instructions: 270000009 cycles: 67511000 heartbeat IPC: 4 cumulative IPC: 3.999 (Simulation time: 07 hr 48 min 41 sec)
Heartbeat CPU 11 instructions: 270000004 cycles: 67511015 heartbeat IPC: 4 cumulative IPC: 3.999 (Simulation time: 07 hr 48 min 41 sec)
Heartbeat CPU 3 instructions: 270000004 cycles: 67511016 heartbeat IPC: 4 cumulative IPC: 3.999 (Simulation time: 07 hr 48 min 41 sec)
Heartbeat CPU 5 instructions: 270000005 cycles: 67511029 heartbeat IPC: 4 cumulative IPC: 3.999 (Simulation time: 07 hr 48 min 41 sec)
Heartbeat CPU 12 instructions: 270000006 cycles: 67511103 heartbeat IPC: 4 cumulative IPC: 3.999 (Simulation time: 07 hr 48 min 41 sec)
Heartbeat CPU 14 instructions: 270000002 cycles: 67511231 heartbeat IPC: 4 cumulative IPC: 3.999 (Simulation time: 07 hr 48 min 41 sec)
Heartbeat CPU 6 instructions: 270000006 cycles: 67511241 heartbeat IPC: 4 cumulative IPC: 3.999 (Simulation time: 07 hr 48 min 41 sec)
Heartbeat CPU 7 instructions: 270000003 cycles: 67511265 heartbeat IPC: 4 cumulative IPC: 3.999 (Simulation time: 07 hr 48 min 41 sec)
Heartbeat CPU 15 instructions: 270000003 cycles: 67511340 heartbeat IPC: 4 cumulative IPC: 3.999 (Simulation time: 07 hr 48 min 41 sec)
Heartbeat CPU 2 instructions: 270000006 cycles: 67512866 heartbeat IPC: 4 cumulative IPC: 3.999 (Simulation time: 07 hr 48 min 42 sec)
Heartbeat CPU 10 instructions: 270000006 cycles: 67513049 heartbeat IPC: 4 cumulative IPC: 3.999 (Simulation time: 07 hr 48 min 42 sec)
*** Reached end of trace: (2, "/home/harshraj/COALESCE-Hashed-Perceptron-Cache-Replacement-Policy/simulator/traces/ocean_8t/ocean2.champsimtrace")
*** Reached end of trace: (10, "/home/harshraj/COALESCE-Hashed-Perceptron-Cache-Replacement-Policy/simulator/traces/ocean_8t/ocean2.champsimtrace")
*** Reached end of trace: (13, "/home/harshraj/COALESCE-Hashed-Perceptron-Cache-Replacement-Policy/simulator/traces/ocean_8t/ocean5.champsimtrace")
*** Reached end of trace: (5, "/home/harshraj/COALESCE-Hashed-Perceptron-Cache-Replacement-Policy/simulator/traces/ocean_8t/ocean5.champsimtrace")
*** Reached end of trace: (4, "/home/harshraj/COALESCE-Hashed-Perceptron-Cache-Replacement-Policy/simulator/traces/ocean_8t/ocean4.champsimtrace")
*** Reached end of trace: (12, "/home/harshraj/COALESCE-Hashed-Perceptron-Cache-Replacement-Policy/simulator/traces/ocean_8t/ocean4.champsimtrace")
*** Reached end of trace: (14, "/home/harshraj/COALESCE-Hashed-Perceptron-Cache-Replacement-Policy/simulator/traces/ocean_8t/ocean6.champsimtrace")
*** Reached end of trace: (6, "/home/harshraj/COALESCE-Hashed-Perceptron-Cache-Replacement-Policy/simulator/traces/ocean_8t/ocean6.champsimtrace")
*** Reached end of trace: (11, "/home/harshraj/COALESCE-Hashed-Perceptron-Cache-Replacement-Policy/simulator/traces/ocean_8t/ocean3.champsimtrace")
*** Reached end of trace: (3, "/home/harshraj/COALESCE-Hashed-Perceptron-Cache-Replacement-Policy/simulator/traces/ocean_8t/ocean3.champsimtrace")
*** Reached end of trace: (7, "/home/harshraj/COALESCE-Hashed-Perceptron-Cache-Replacement-Policy/simulator/traces/ocean_8t/ocean7.champsimtrace")
*** Reached end of trace: (15, "/home/harshraj/COALESCE-Hashed-Perceptron-Cache-Replacement-Policy/simulator/traces/ocean_8t/ocean7.champsimtrace")
Heartbeat CPU 9 instructions: 160000022 cycles: 69332718 heartbeat IPC: 2.426 cumulative IPC: 2.308 (Simulation time: 08 hr 01 min 45 sec)
Heartbeat CPU 1 instructions: 160000018 cycles: 69332727 heartbeat IPC: 2.426 cumulative IPC: 2.308 (Simulation time: 08 hr 01 min 45 sec)
Heartbeat CPU 4 instructions: 280000006 cycles: 70010914 heartbeat IPC: 4 cumulative IPC: 3.999 (Simulation time: 08 hr 07 min 01 sec)
Heartbeat CPU 13 instructions: 280000009 cycles: 70011000 heartbeat IPC: 4 cumulative IPC: 3.999 (Simulation time: 08 hr 07 min 01 sec)
Heartbeat CPU 11 instructions: 280000004 cycles: 70011015 heartbeat IPC: 4 cumulative IPC: 3.999 (Simulation time: 08 hr 07 min 01 sec)
Heartbeat CPU 3 instructions: 280000004 cycles: 70011016 heartbeat IPC: 4 cumulative IPC: 3.999 (Simulation time: 08 hr 07 min 01 sec)
Heartbeat CPU 5 instructions: 280000005 cycles: 70011029 heartbeat IPC: 4 cumulative IPC: 3.999 (Simulation time: 08 hr 07 min 01 sec)
Heartbeat CPU 12 instructions: 280000006 cycles: 70011103 heartbeat IPC: 4 cumulative IPC: 3.999 (Simulation time: 08 hr 07 min 01 sec)
Heartbeat CPU 14 instructions: 280000002 cycles: 70011231 heartbeat IPC: 4 cumulative IPC: 3.999 (Simulation time: 08 hr 07 min 01 sec)
Heartbeat CPU 6 instructions: 280000006 cycles: 70011241 heartbeat IPC: 4 cumulative IPC: 3.999 (Simulation time: 08 hr 07 min 01 sec)
Heartbeat CPU 7 instructions: 280000003 cycles: 70011265 heartbeat IPC: 4 cumulative IPC: 3.999 (Simulation time: 08 hr 07 min 01 sec)
Heartbeat CPU 15 instructions: 280000003 cycles: 70011340 heartbeat IPC: 4 cumulative IPC: 3.999 (Simulation time: 08 hr 07 min 01 sec)
Heartbeat CPU 2 instructions: 280000006 cycles: 70012866 heartbeat IPC: 4 cumulative IPC: 3.999 (Simulation time: 08 hr 07 min 02 sec)
Heartbeat CPU 10 instructions: 280000006 cycles: 70013049 heartbeat IPC: 4 cumulative IPC: 3.999 (Simulation time: 08 hr 07 min 02 sec)
Heartbeat CPU 4 instructions: 290000006 cycles: 72510914 heartbeat IPC: 4 cumulative IPC: 3.999 (Simulation time: 08 hr 23 min 37 sec)
Heartbeat CPU 13 instructions: 290000009 cycles: 72511000 heartbeat IPC: 4 cumulative IPC: 3.999 (Simulation time: 08 hr 23 min 37 sec)
Heartbeat CPU 11 instructions: 290000004 cycles: 72511015 heartbeat IPC: 4 cumulative IPC: 3.999 (Simulation time: 08 hr 23 min 37 sec)
Heartbeat CPU 3 instructions: 290000004 cycles: 72511016 heartbeat IPC: 4 cumulative IPC: 3.999 (Simulation time: 08 hr 23 min 37 sec)
Heartbeat CPU 5 instructions: 290000005 cycles: 72511029 heartbeat IPC: 4 cumulative IPC: 3.999 (Simulation time: 08 hr 23 min 37 sec)
Heartbeat CPU 12 instructions: 290000006 cycles: 72511103 heartbeat IPC: 4 cumulative IPC: 3.999 (Simulation time: 08 hr 23 min 37 sec)
Heartbeat CPU 14 instructions: 290000002 cycles: 72511231 heartbeat IPC: 4 cumulative IPC: 3.999 (Simulation time: 08 hr 23 min 37 sec)
Heartbeat CPU 6 instructions: 290000006 cycles: 72511241 heartbeat IPC: 4 cumulative IPC: 3.999 (Simulation time: 08 hr 23 min 37 sec)
Heartbeat CPU 7 instructions: 290000003 cycles: 72511265 heartbeat IPC: 4 cumulative IPC: 3.999 (Simulation time: 08 hr 23 min 37 sec)
Heartbeat CPU 15 instructions: 290000003 cycles: 72511340 heartbeat IPC: 4 cumulative IPC: 3.999 (Simulation time: 08 hr 23 min 37 sec)
Heartbeat CPU 2 instructions: 290000006 cycles: 72512866 heartbeat IPC: 4 cumulative IPC: 3.999 (Simulation time: 08 hr 23 min 38 sec)
Heartbeat CPU 10 instructions: 290000006 cycles: 72513049 heartbeat IPC: 4 cumulative IPC: 3.999 (Simulation time: 08 hr 23 min 38 sec)
Heartbeat CPU 9 instructions: 170000022 cycles: 74904677 heartbeat IPC: 1.795 cumulative IPC: 2.27 (Simulation time: 08 hr 40 min 07 sec)
Heartbeat CPU 1 instructions: 170000018 cycles: 74904678 heartbeat IPC: 1.795 cumulative IPC: 2.27 (Simulation time: 08 hr 40 min 07 sec)
Heartbeat CPU 4 instructions: 300000006 cycles: 75010914 heartbeat IPC: 4 cumulative IPC: 3.999 (Simulation time: 08 hr 40 min 58 sec)
Heartbeat CPU 13 instructions: 300000009 cycles: 75011000 heartbeat IPC: 4 cumulative IPC: 3.999 (Simulation time: 08 hr 40 min 58 sec)
Heartbeat CPU 11 instructions: 300000004 cycles: 75011015 heartbeat IPC: 4 cumulative IPC: 3.999 (Simulation time: 08 hr 40 min 58 sec)
Heartbeat CPU 3 instructions: 300000004 cycles: 75011016 heartbeat IPC: 4 cumulative IPC: 3.999 (Simulation time: 08 hr 40 min 58 sec)
Heartbeat CPU 5 instructions: 300000005 cycles: 75011029 heartbeat IPC: 4 cumulative IPC: 3.999 (Simulation time: 08 hr 40 min 58 sec)
Heartbeat CPU 12 instructions: 300000006 cycles: 75011103 heartbeat IPC: 4 cumulative IPC: 3.999 (Simulation time: 08 hr 40 min 58 sec)
Heartbeat CPU 14 instructions: 300000002 cycles: 75011231 heartbeat IPC: 4 cumulative IPC: 3.999 (Simulation time: 08 hr 40 min 58 sec)
Heartbeat CPU 6 instructions: 300000006 cycles: 75011241 heartbeat IPC: 4 cumulative IPC: 3.999 (Simulation time: 08 hr 40 min 58 sec)
Heartbeat CPU 7 instructions: 300000003 cycles: 75011265 heartbeat IPC: 4 cumulative IPC: 3.999 (Simulation time: 08 hr 40 min 58 sec)
Heartbeat CPU 15 instructions: 300000003 cycles: 75011340 heartbeat IPC: 4 cumulative IPC: 3.999 (Simulation time: 08 hr 40 min 58 sec)
Heartbeat CPU 2 instructions: 300000006 cycles: 75012866 heartbeat IPC: 4 cumulative IPC: 3.999 (Simulation time: 08 hr 40 min 59 sec)
Heartbeat CPU 10 instructions: 300000006 cycles: 75013049 heartbeat IPC: 4 cumulative IPC: 3.999 (Simulation time: 08 hr 40 min 59 sec)
Heartbeat CPU 4 instructions: 310000006 cycles: 77510914 heartbeat IPC: 4 cumulative IPC: 3.999 (Simulation time: 08 hr 57 min 37 sec)
Heartbeat CPU 13 instructions: 310000009 cycles: 77511000 heartbeat IPC: 4 cumulative IPC: 3.999 (Simulation time: 08 hr 57 min 37 sec)
Heartbeat CPU 11 instructions: 310000004 cycles: 77511015 heartbeat IPC: 4 cumulative IPC: 3.999 (Simulation time: 08 hr 57 min 37 sec)
Heartbeat CPU 3 instructions: 310000004 cycles: 77511016 heartbeat IPC: 4 cumulative IPC: 3.999 (Simulation time: 08 hr 57 min 37 sec)
Heartbeat CPU 5 instructions: 310000005 cycles: 77511029 heartbeat IPC: 4 cumulative IPC: 3.999 (Simulation time: 08 hr 57 min 37 sec)
Heartbeat CPU 12 instructions: 310000006 cycles: 77511103 heartbeat IPC: 4 cumulative IPC: 3.999 (Simulation time: 08 hr 57 min 37 sec)
Heartbeat CPU 14 instructions: 310000002 cycles: 77511231 heartbeat IPC: 4 cumulative IPC: 3.999 (Simulation time: 08 hr 57 min 37 sec)
Heartbeat CPU 6 instructions: 310000006 cycles: 77511241 heartbeat IPC: 4 cumulative IPC: 3.999 (Simulation time: 08 hr 57 min 37 sec)
Heartbeat CPU 7 instructions: 310000003 cycles: 77511265 heartbeat IPC: 4 cumulative IPC: 3.999 (Simulation time: 08 hr 57 min 37 sec)
Heartbeat CPU 15 instructions: 310000003 cycles: 77511340 heartbeat IPC: 4 cumulative IPC: 3.999 (Simulation time: 08 hr 57 min 37 sec)
Heartbeat CPU 2 instructions: 310000006 cycles: 77512866 heartbeat IPC: 4 cumulative IPC: 3.999 (Simulation time: 08 hr 57 min 38 sec)
Heartbeat CPU 10 instructions: 310000006 cycles: 77513049 heartbeat IPC: 4 cumulative IPC: 3.999 (Simulation time: 08 hr 57 min 38 sec)
Heartbeat CPU 1 instructions: 180000021 cycles: 78446855 heartbeat IPC: 2.823 cumulative IPC: 2.295 (Simulation time: 09 hr 04 min 18 sec)
Heartbeat CPU 9 instructions: 180000025 cycles: 78446862 heartbeat IPC: 2.823 cumulative IPC: 2.295 (Simulation time: 09 hr 04 min 18 sec)
*** Reached end of trace: (2, "/home/harshraj/COALESCE-Hashed-Perceptron-Cache-Replacement-Policy/simulator/traces/ocean_8t/ocean2.champsimtrace")
*** Reached end of trace: (10, "/home/harshraj/COALESCE-Hashed-Perceptron-Cache-Replacement-Policy/simulator/traces/ocean_8t/ocean2.champsimtrace")
*** Reached end of trace: (9, "/home/harshraj/COALESCE-Hashed-Perceptron-Cache-Replacement-Policy/simulator/traces/ocean_8t/ocean1.champsimtrace")
*** Reached end of trace: (1, "/home/harshraj/COALESCE-Hashed-Perceptron-Cache-Replacement-Policy/simulator/traces/ocean_8t/ocean1.champsimtrace")
*** Reached end of trace: (13, "/home/harshraj/COALESCE-Hashed-Perceptron-Cache-Replacement-Policy/simulator/traces/ocean_8t/ocean5.champsimtrace")
*** Reached end of trace: (5, "/home/harshraj/COALESCE-Hashed-Perceptron-Cache-Replacement-Policy/simulator/traces/ocean_8t/ocean5.champsimtrace")
*** Reached end of trace: (4, "/home/harshraj/COALESCE-Hashed-Perceptron-Cache-Replacement-Policy/simulator/traces/ocean_8t/ocean4.champsimtrace")
*** Reached end of trace: (12, "/home/harshraj/COALESCE-Hashed-Perceptron-Cache-Replacement-Policy/simulator/traces/ocean_8t/ocean4.champsimtrace")
*** Reached end of trace: (14, "/home/harshraj/COALESCE-Hashed-Perceptron-Cache-Replacement-Policy/simulator/traces/ocean_8t/ocean6.champsimtrace")
*** Reached end of trace: (6, "/home/harshraj/COALESCE-Hashed-Perceptron-Cache-Replacement-Policy/simulator/traces/ocean_8t/ocean6.champsimtrace")
*** Reached end of trace: (11, "/home/harshraj/COALESCE-Hashed-Perceptron-Cache-Replacement-Policy/simulator/traces/ocean_8t/ocean3.champsimtrace")
*** Reached end of trace: (3, "/home/harshraj/COALESCE-Hashed-Perceptron-Cache-Replacement-Policy/simulator/traces/ocean_8t/ocean3.champsimtrace")
*** Reached end of trace: (7, "/home/harshraj/COALESCE-Hashed-Perceptron-Cache-Replacement-Policy/simulator/traces/ocean_8t/ocean7.champsimtrace")
*** Reached end of trace: (15, "/home/harshraj/COALESCE-Hashed-Perceptron-Cache-Replacement-Policy/simulator/traces/ocean_8t/ocean7.champsimtrace")
Heartbeat CPU 4 instructions: 320000006 cycles: 80010914 heartbeat IPC: 4 cumulative IPC: 3.999 (Simulation time: 09 hr 14 min 58 sec)
Heartbeat CPU 13 instructions: 320000009 cycles: 80011000 heartbeat IPC: 4 cumulative IPC: 3.999 (Simulation time: 09 hr 14 min 58 sec)
Heartbeat CPU 11 instructions: 320000004 cycles: 80011015 heartbeat IPC: 4 cumulative IPC: 3.999 (Simulation time: 09 hr 14 min 58 sec)
Heartbeat CPU 3 instructions: 320000004 cycles: 80011016 heartbeat IPC: 4 cumulative IPC: 3.999 (Simulation time: 09 hr 14 min 58 sec)
Heartbeat CPU 5 instructions: 320000005 cycles: 80011029 heartbeat IPC: 4 cumulative IPC: 3.999 (Simulation time: 09 hr 14 min 58 sec)
Heartbeat CPU 12 instructions: 320000006 cycles: 80011103 heartbeat IPC: 4 cumulative IPC: 3.999 (Simulation time: 09 hr 14 min 58 sec)
Heartbeat CPU 14 instructions: 320000002 cycles: 80011231 heartbeat IPC: 4 cumulative IPC: 3.999 (Simulation time: 09 hr 14 min 58 sec)
Heartbeat CPU 6 instructions: 320000006 cycles: 80011241 heartbeat IPC: 4 cumulative IPC: 3.999 (Simulation time: 09 hr 14 min 58 sec)
Heartbeat CPU 7 instructions: 320000003 cycles: 80011265 heartbeat IPC: 4 cumulative IPC: 3.999 (Simulation time: 09 hr 14 min 58 sec)
Heartbeat CPU 15 instructions: 320000003 cycles: 80011340 heartbeat IPC: 4 cumulative IPC: 3.999 (Simulation time: 09 hr 14 min 58 sec)
Heartbeat CPU 2 instructions: 320000006 cycles: 80012866 heartbeat IPC: 4 cumulative IPC: 3.999 (Simulation time: 09 hr 14 min 59 sec)
Heartbeat CPU 10 instructions: 320000006 cycles: 80013049 heartbeat IPC: 4 cumulative IPC: 3.999 (Simulation time: 09 hr 14 min 59 sec)
Heartbeat CPU 1 instructions: 190000024 cycles: 82457293 heartbeat IPC: 2.493 cumulative IPC: 2.304 (Simulation time: 09 hr 32 min 51 sec)
Heartbeat CPU 9 instructions: 190000028 cycles: 82457370 heartbeat IPC: 2.493 cumulative IPC: 2.304 (Simulation time: 09 hr 32 min 51 sec)
Heartbeat CPU 4 instructions: 330000006 cycles: 82510914 heartbeat IPC: 4 cumulative IPC: 3.999 (Simulation time: 09 hr 33 min 14 sec)
Heartbeat CPU 13 instructions: 330000009 cycles: 82511000 heartbeat IPC: 4 cumulative IPC: 3.999 (Simulation time: 09 hr 33 min 14 sec)
Heartbeat CPU 11 instructions: 330000004 cycles: 82511015 heartbeat IPC: 4 cumulative IPC: 3.999 (Simulation time: 09 hr 33 min 14 sec)
Heartbeat CPU 3 instructions: 330000004 cycles: 82511016 heartbeat IPC: 4 cumulative IPC: 3.999 (Simulation time: 09 hr 33 min 14 sec)
Heartbeat CPU 5 instructions: 330000005 cycles: 82511029 heartbeat IPC: 4 cumulative IPC: 3.999 (Simulation time: 09 hr 33 min 14 sec)
Heartbeat CPU 12 instructions: 330000006 cycles: 82511103 heartbeat IPC: 4 cumulative IPC: 3.999 (Simulation time: 09 hr 33 min 14 sec)
Heartbeat CPU 14 instructions: 330000002 cycles: 82511231 heartbeat IPC: 4 cumulative IPC: 3.999 (Simulation time: 09 hr 33 min 14 sec)
Heartbeat CPU 6 instructions: 330000006 cycles: 82511241 heartbeat IPC: 4 cumulative IPC: 3.999 (Simulation time: 09 hr 33 min 14 sec)
Heartbeat CPU 7 instructions: 330000003 cycles: 82511265 heartbeat IPC: 4 cumulative IPC: 3.999 (Simulation time: 09 hr 33 min 14 sec)
Heartbeat CPU 15 instructions: 330000003 cycles: 82511340 heartbeat IPC: 4 cumulative IPC: 3.999 (Simulation time: 09 hr 33 min 14 sec)
Heartbeat CPU 2 instructions: 330000006 cycles: 82512866 heartbeat IPC: 4 cumulative IPC: 3.999 (Simulation time: 09 hr 33 min 15 sec)
Heartbeat CPU 10 instructions: 330000006 cycles: 82513049 heartbeat IPC: 4 cumulative IPC: 3.999 (Simulation time: 09 hr 33 min 15 sec)
Heartbeat CPU 0 instructions: 40000006 cycles: 84229922 heartbeat IPC: 0.446 cumulative IPC: 0.4749 (Simulation time: 09 hr 45 min 34 sec)
Heartbeat CPU 8 instructions: 40000006 cycles: 84230048 heartbeat IPC: 0.4458 cumulative IPC: 0.4749 (Simulation time: 09 hr 45 min 34 sec)
Heartbeat CPU 4 instructions: 340000006 cycles: 85010914 heartbeat IPC: 4 cumulative IPC: 3.999 (Simulation time: 09 hr 50 min 31 sec)
Heartbeat CPU 13 instructions: 340000009 cycles: 85011000 heartbeat IPC: 4 cumulative IPC: 3.999 (Simulation time: 09 hr 50 min 31 sec)
Heartbeat CPU 11 instructions: 340000004 cycles: 85011015 heartbeat IPC: 4 cumulative IPC: 3.999 (Simulation time: 09 hr 50 min 31 sec)
Heartbeat CPU 3 instructions: 340000004 cycles: 85011016 heartbeat IPC: 4 cumulative IPC: 3.999 (Simulation time: 09 hr 50 min 31 sec)
Heartbeat CPU 5 instructions: 340000005 cycles: 85011029 heartbeat IPC: 4 cumulative IPC: 3.999 (Simulation time: 09 hr 50 min 31 sec)
Heartbeat CPU 12 instructions: 340000006 cycles: 85011103 heartbeat IPC: 4 cumulative IPC: 3.999 (Simulation time: 09 hr 50 min 31 sec)
Heartbeat CPU 14 instructions: 340000002 cycles: 85011231 heartbeat IPC: 4 cumulative IPC: 3.999 (Simulation time: 09 hr 50 min 31 sec)
Heartbeat CPU 6 instructions: 340000006 cycles: 85011241 heartbeat IPC: 4 cumulative IPC: 3.999 (Simulation time: 09 hr 50 min 31 sec)
Heartbeat CPU 7 instructions: 340000003 cycles: 85011265 heartbeat IPC: 4 cumulative IPC: 3.999 (Simulation time: 09 hr 50 min 31 sec)
Heartbeat CPU 15 instructions: 340000003 cycles: 85011340 heartbeat IPC: 4 cumulative IPC: 3.999 (Simulation time: 09 hr 50 min 31 sec)
Heartbeat CPU 2 instructions: 340000006 cycles: 85012866 heartbeat IPC: 4 cumulative IPC: 3.999 (Simulation time: 09 hr 50 min 31 sec)
Heartbeat CPU 10 instructions: 340000006 cycles: 85013049 heartbeat IPC: 4 cumulative IPC: 3.999 (Simulation time: 09 hr 50 min 31 sec)
Heartbeat CPU 1 instructions: 200000024 cycles: 86548053 heartbeat IPC: 2.445 cumulative IPC: 2.311 (Simulation time: 10 hr 01 min 00 sec)
Heartbeat CPU 9 instructions: 200000028 cycles: 86548056 heartbeat IPC: 2.445 cumulative IPC: 2.311 (Simulation time: 10 hr 01 min 00 sec)
Heartbeat CPU 4 instructions: 350000006 cycles: 87510914 heartbeat IPC: 4 cumulative IPC: 4 (Simulation time: 10 hr 07 min 57 sec)
Heartbeat CPU 13 instructions: 350000009 cycles: 87511000 heartbeat IPC: 4 cumulative IPC: 3.999 (Simulation time: 10 hr 07 min 57 sec)
Heartbeat CPU 11 instructions: 350000004 cycles: 87511015 heartbeat IPC: 4 cumulative IPC: 3.999 (Simulation time: 10 hr 07 min 57 sec)
Heartbeat CPU 3 instructions: 350000004 cycles: 87511016 heartbeat IPC: 4 cumulative IPC: 3.999 (Simulation time: 10 hr 07 min 57 sec)
Heartbeat CPU 5 instructions: 350000005 cycles: 87511029 heartbeat IPC: 4 cumulative IPC: 3.999 (Simulation time: 10 hr 07 min 57 sec)
Heartbeat CPU 12 instructions: 350000006 cycles: 87511103 heartbeat IPC: 4 cumulative IPC: 3.999 (Simulation time: 10 hr 07 min 57 sec)
Heartbeat CPU 14 instructions: 350000002 cycles: 87511231 heartbeat IPC: 4 cumulative IPC: 3.999 (Simulation time: 10 hr 07 min 57 sec)
Heartbeat CPU 6 instructions: 350000006 cycles: 87511241 heartbeat IPC: 4 cumulative IPC: 3.999 (Simulation time: 10 hr 07 min 57 sec)
Heartbeat CPU 7 instructions: 350000003 cycles: 87511265 heartbeat IPC: 4 cumulative IPC: 3.999 (Simulation time: 10 hr 07 min 57 sec)
Heartbeat CPU 15 instructions: 350000003 cycles: 87511340 heartbeat IPC: 4 cumulative IPC: 3.999 (Simulation time: 10 hr 07 min 57 sec)
Heartbeat CPU 2 instructions: 350000006 cycles: 87512866 heartbeat IPC: 4 cumulative IPC: 3.999 (Simulation time: 10 hr 07 min 58 sec)
Heartbeat CPU 10 instructions: 350000006 cycles: 87513049 heartbeat IPC: 4 cumulative IPC: 3.999 (Simulation time: 10 hr 07 min 58 sec)
Heartbeat CPU 4 instructions: 360000006 cycles: 90010914 heartbeat IPC: 4 cumulative IPC: 4 (Simulation time: 10 hr 24 min 43 sec)
Heartbeat CPU 13 instructions: 360000009 cycles: 90011000 heartbeat IPC: 4 cumulative IPC: 4 (Simulation time: 10 hr 24 min 43 sec)
Heartbeat CPU 11 instructions: 360000004 cycles: 90011015 heartbeat IPC: 4 cumulative IPC: 4 (Simulation time: 10 hr 24 min 43 sec)
Heartbeat CPU 3 instructions: 360000004 cycles: 90011016 heartbeat IPC: 4 cumulative IPC: 4 (Simulation time: 10 hr 24 min 43 sec)
Heartbeat CPU 5 instructions: 360000005 cycles: 90011029 heartbeat IPC: 4 cumulative IPC: 4 (Simulation time: 10 hr 24 min 43 sec)
Heartbeat CPU 12 instructions: 360000006 cycles: 90011103 heartbeat IPC: 4 cumulative IPC: 4 (Simulation time: 10 hr 24 min 43 sec)
[...]
cpu12->cpu12_STLB LOAD         ACCESS:        854 HIT:        854 MISS:          0 MSHR_MERGE:          0
cpu12->cpu12_STLB RFO          ACCESS:          0 HIT:          0 MISS:          0 MSHR_MERGE:          0
cpu12->cpu12_STLB PREFETCH     ACCESS:          0 HIT:          0 MISS:          0 MSHR_MERGE:          0
cpu12->cpu12_STLB WRITE        ACCESS:          0 HIT:          0 MISS:          0 MSHR_MERGE:          0
cpu12->cpu12_STLB TRANSLATION  ACCESS:          0 HIT:          0 MISS:          0 MSHR_MERGE:          0
cpu12->cpu12_STLB PREFETCH REQUESTED:          0 ISSUED:          0 USEFUL:          0 USELESS:          0
cpu12->cpu12_STLB AVERAGE MISS LATENCY: - cycles
cpu12_STLB COHERENCE INVALIDATIONS:          0
cpu12_STLB COHERENCE WRITE-HIT OTHER-SHARER EVENTS:          0
cpu12->cpu12_L2C TOTAL        ACCESS:      46567 HIT:      46567 MISS:          0 MSHR_MERGE:          0
cpu12->cpu12_L2C LOAD         ACCESS:      46567 HIT:      46567 MISS:          0 MSHR_MERGE:          0
cpu12->cpu12_L2C RFO          ACCESS:          0 HIT:          0 MISS:          0 MSHR_MERGE:          0
cpu12->cpu12_L2C PREFETCH     ACCESS:          0 HIT:          0 MISS:          0 MSHR_MERGE:          0
cpu12->cpu12_L2C WRITE        ACCESS:          0 HIT:          0 MISS:          0 MSHR_MERGE:          0
cpu12->cpu12_L2C TRANSLATION  ACCESS:          0 HIT:          0 MISS:          0 MSHR_MERGE:          0
cpu12->cpu12_L2C PREFETCH REQUESTED:          0 ISSUED:          0 USEFUL:          0 USELESS:          0
cpu12->cpu12_L2C AVERAGE MISS LATENCY: - cycles
cpu12_L2C COHERENCE INVALIDATIONS:          0
cpu12_L2C COHERENCE WRITE-HIT OTHER-SHARER EVENTS:          0
cpu12->cpu12_L1I TOTAL        ACCESS:  435543313 HIT:  435468955 MISS:      74358 MSHR_MERGE:      27791
cpu12->cpu12_L1I LOAD         ACCESS:  435543313 HIT:  435468955 MISS:      74358 MSHR_MERGE:      27791
cpu12->cpu12_L1I RFO          ACCESS:          0 HIT:          0 MISS:          0 MSHR_MERGE:          0
cpu12->cpu12_L1I PREFETCH     ACCESS:          0 HIT:          0 MISS:          0 MSHR_MERGE:          0
cpu12->cpu12_L1I WRITE        ACCESS:          0 HIT:          0 MISS:          0 MSHR_MERGE:          0
cpu12->cpu12_L1I TRANSLATION  ACCESS:          0 HIT:          0 MISS:          0 MSHR_MERGE:          0
cpu12->cpu12_L1I PREFETCH REQUESTED:          0 ISSUED:          0 USEFUL:          0 USELESS:          0
cpu12->cpu12_L1I AVERAGE MISS LATENCY: 7.2 cycles
cpu12_L1I COHERENCE INVALIDATIONS:          0
cpu12_L1I COHERENCE WRITE-HIT OTHER-SHARER EVENTS:          0
cpu12_L1D COHERENCE INVALIDATIONS:          0
cpu12_L1D COHERENCE WRITE-HIT OTHER-SHARER EVENTS:          0
cpu12->cpu12_ITLB TOTAL        ACCESS:  344323359 HIT:  344321590 MISS:       1769 MSHR_MERGE:        915
cpu12->cpu12_ITLB LOAD         ACCESS:  344323359 HIT:  344321590 MISS:       1769 MSHR_MERGE:        915
cpu12->cpu12_ITLB RFO          ACCESS:          0 HIT:          0 MISS:          0 MSHR_MERGE:          0
cpu12->cpu12_ITLB PREFETCH     ACCESS:          0 HIT:          0 MISS:          0 MSHR_MERGE:          0
cpu12->cpu12_ITLB WRITE        ACCESS:          0 HIT:          0 MISS:          0 MSHR_MERGE:          0
cpu12->cpu12_ITLB TRANSLATION  ACCESS:          0 HIT:          0 MISS:          0 MSHR_MERGE:          0
cpu12->cpu12_ITLB PREFETCH REQUESTED:          0 ISSUED:          0 USEFUL:          0 USELESS:          0
cpu12->cpu12_ITLB AVERAGE MISS LATENCY: 4 cycles
cpu12_ITLB COHERENCE INVALIDATIONS:          0
cpu12_ITLB COHERENCE WRITE-HIT OTHER-SHARER EVENTS:          0
cpu12_DTLB COHERENCE INVALIDATIONS:          0
cpu12_DTLB COHERENCE WRITE-HIT OTHER-SHARER EVENTS:          0
cpu11->cpu11_STLB TOTAL        ACCESS:        976 HIT:        976 MISS:          0 MSHR_MERGE:          0
cpu11->cpu11_STLB LOAD         ACCESS:        976 HIT:        976 MISS:          0 MSHR_MERGE:          0
cpu11->cpu11_STLB RFO          ACCESS:          0 HIT:          0 MISS:          0 MSHR_MERGE:          0
cpu11->cpu11_STLB PREFETCH     ACCESS:          0 HIT:          0 MISS:          0 MSHR_MERGE:          0
cpu11->cpu11_STLB WRITE        ACCESS:          0 HIT:          0 MISS:          0 MSHR_MERGE:          0
cpu11->cpu11_STLB TRANSLATION  ACCESS:          0 HIT:          0 MISS:          0 MSHR_MERGE:          0
cpu11->cpu11_STLB PREFETCH REQUESTED:          0 ISSUED:          0 USEFUL:          0 USELESS:          0
cpu11->cpu11_STLB AVERAGE MISS LATENCY: - cycles
cpu11_STLB COHERENCE INVALIDATIONS:          0
cpu11_STLB COHERENCE WRITE-HIT OTHER-SHARER EVENTS:          0
cpu11->cpu11_L2C TOTAL        ACCESS:      95398 HIT:      95398 MISS:          0 MSHR_MERGE:          0
cpu11->cpu11_L2C LOAD         ACCESS:      95398 HIT:      95398 MISS:          0 MSHR_MERGE:          0
cpu11->cpu11_L2C RFO          ACCESS:          0 HIT:          0 MISS:          0 MSHR_MERGE:          0
cpu11->cpu11_L2C PREFETCH     ACCESS:          0 HIT:          0 MISS:          0 MSHR_MERGE:          0
cpu11->cpu11_L2C WRITE        ACCESS:          0 HIT:          0 MISS:          0 MSHR_MERGE:          0
cpu11->cpu11_L2C TRANSLATION  ACCESS:          0 HIT:          0 MISS:          0 MSHR_MERGE:          0
cpu11->cpu11_L2C PREFETCH REQUESTED:          0 ISSUED:          0 USEFUL:          0 USELESS:          0
cpu11->cpu11_L2C AVERAGE MISS LATENCY: - cycles
cpu11_L2C COHERENCE INVALIDATIONS:          0
cpu11_L2C COHERENCE WRITE-HIT OTHER-SHARER EVENTS:          0
cpu11->cpu11_L1I TOTAL        ACCESS:  434913037 HIT:  434769994 MISS:     143043 MSHR_MERGE:      47645
cpu11->cpu11_L1I LOAD         ACCESS:  434913037 HIT:  434769994 MISS:     143043 MSHR_MERGE:      47645
cpu11->cpu11_L1I RFO          ACCESS:          0 HIT:          0 MISS:          0 MSHR_MERGE:          0
cpu11->cpu11_L1I PREFETCH     ACCESS:          0 HIT:          0 MISS:          0 MSHR_MERGE:          0
cpu11->cpu11_L1I WRITE        ACCESS:          0 HIT:          0 MISS:          0 MSHR_MERGE:          0
cpu11->cpu11_L1I TRANSLATION  ACCESS:          0 HIT:          0 MISS:          0 MSHR_MERGE:          0
cpu11->cpu11_L1I PREFETCH REQUESTED:          0 ISSUED:          0 USEFUL:          0 USELESS:          0
cpu11->cpu11_L1I AVERAGE MISS LATENCY: 7 cycles
cpu11_L1I COHERENCE INVALIDATIONS:          0
cpu11_L1I COHERENCE WRITE-HIT OTHER-SHARER EVENTS:          0
cpu11_L1D COHERENCE INVALIDATIONS:          0
cpu11_L1D COHERENCE WRITE-HIT OTHER-SHARER EVENTS:          0
cpu11->cpu11_ITLB TOTAL        ACCESS:  344408616 HIT:  344406786 MISS:       1830 MSHR_MERGE:        854
cpu11->cpu11_ITLB LOAD         ACCESS:  344408616 HIT:  344406786 MISS:       1830 MSHR_MERGE:        854
cpu11->cpu11_ITLB RFO          ACCESS:          0 HIT:          0 MISS:          0 MSHR_MERGE:          0
cpu11->cpu11_ITLB PREFETCH     ACCESS:          0 HIT:          0 MISS:          0 MSHR_MERGE:          0
cpu11->cpu11_ITLB WRITE        ACCESS:          0 HIT:          0 MISS:          0 MSHR_MERGE:          0
cpu11->cpu11_ITLB TRANSLATION  ACCESS:          0 HIT:          0 MISS:          0 MSHR_MERGE:          0
cpu11->cpu11_ITLB PREFETCH REQUESTED:          0 ISSUED:          0 USEFUL:          0 USELESS:          0
cpu11->cpu11_ITLB AVERAGE MISS LATENCY: 4 cycles
cpu11_ITLB COHERENCE INVALIDATIONS:          0
cpu11_ITLB COHERENCE WRITE-HIT OTHER-SHARER EVENTS:          0
cpu11_DTLB COHERENCE INVALIDATIONS:          0
cpu11_DTLB COHERENCE WRITE-HIT OTHER-SHARER EVENTS:          0
cpu10->cpu10_STLB TOTAL        ACCESS:        976 HIT:        976 MISS:          0 MSHR_MERGE:          0
cpu10->cpu10_STLB LOAD         ACCESS:        976 HIT:        976 MISS:          0 MSHR_MERGE:          0
cpu10->cpu10_STLB RFO          ACCESS:          0 HIT:          0 MISS:          0 MSHR_MERGE:          0
cpu10->cpu10_STLB PREFETCH     ACCESS:          0 HIT:          0 MISS:          0 MSHR_MERGE:          0
cpu10->cpu10_STLB WRITE        ACCESS:          0 HIT:          0 MISS:          0 MSHR_MERGE:          0
cpu10->cpu10_STLB TRANSLATION  ACCESS:          0 HIT:          0 MISS:          0 MSHR_MERGE:          0
cpu10->cpu10_STLB PREFETCH REQUESTED:          0 ISSUED:          0 USEFUL:          0 USELESS:          0
cpu10->cpu10_STLB AVERAGE MISS LATENCY: - cycles
cpu10_STLB COHERENCE INVALIDATIONS:          0
cpu10_STLB COHERENCE WRITE-HIT OTHER-SHARER EVENTS:          0
cpu10->cpu10_L2C TOTAL        ACCESS:     101458 HIT:     101458 MISS:          0 MSHR_MERGE:          0
cpu10->cpu10_L2C LOAD         ACCESS:     101458 HIT:     101458 MISS:          0 MSHR_MERGE:          0
cpu10->cpu10_L2C RFO          ACCESS:          0 HIT:          0 MISS:          0 MSHR_MERGE:          0
cpu10->cpu10_L2C PREFETCH     ACCESS:          0 HIT:          0 MISS:          0 MSHR_MERGE:          0
cpu10->cpu10_L2C WRITE        ACCESS:          0 HIT:          0 MISS:          0 MSHR_MERGE:          0
cpu10->cpu10_L2C TRANSLATION  ACCESS:          0 HIT:          0 MISS:          0 MSHR_MERGE:          0
cpu10->cpu10_L2C PREFETCH REQUESTED:          0 ISSUED:          0 USEFUL:          0 USELESS:          0
cpu10->cpu10_L2C AVERAGE MISS LATENCY: - cycles
cpu10_L2C COHERENCE INVALIDATIONS:          0
cpu10_L2C COHERENCE WRITE-HIT OTHER-SHARER EVENTS:          0
cpu10->cpu10_L1I TOTAL        ACCESS:  435737839 HIT:  435584309 MISS:     153530 MSHR_MERGE:      52072
cpu10->cpu10_L1I LOAD         ACCESS:  435737839 HIT:  435584309 MISS:     153530 MSHR_MERGE:      52072
cpu10->cpu10_L1I RFO          ACCESS:          0 HIT:          0 MISS:          0 MSHR_MERGE:          0
cpu10->cpu10_L1I PREFETCH     ACCESS:          0 HIT:          0 MISS:          0 MSHR_MERGE:          0
cpu10->cpu10_L1I WRITE        ACCESS:          0 HIT:          0 MISS:          0 MSHR_MERGE:          0
cpu10->cpu10_L1I TRANSLATION  ACCESS:          0 HIT:          0 MISS:          0 MSHR_MERGE:          0
cpu10->cpu10_L1I PREFETCH REQUESTED:          0 ISSUED:          0 USEFUL:          0 USELESS:          0
cpu10->cpu10_L1I AVERAGE MISS LATENCY: 7 cycles
cpu10_L1I COHERENCE INVALIDATIONS:          0
cpu10_L1I COHERENCE WRITE-HIT OTHER-SHARER EVENTS:          0
cpu10_L1D COHERENCE INVALIDATIONS:          0
cpu10_L1D COHERENCE WRITE-HIT OTHER-SHARER EVENTS:          0
cpu10->cpu10_ITLB TOTAL        ACCESS:  344289691 HIT:  344287922 MISS:       1769 MSHR_MERGE:        793
cpu10->cpu10_ITLB LOAD         ACCESS:  344289691 HIT:  344287922 MISS:       1769 MSHR_MERGE:        793
cpu10->cpu10_ITLB RFO          ACCESS:          0 HIT:          0 MISS:          0 MSHR_MERGE:          0
cpu10->cpu10_ITLB PREFETCH     ACCESS:          0 HIT:          0 MISS:          0 MSHR_MERGE:          0
cpu10->cpu10_ITLB WRITE        ACCESS:          0 HIT:          0 MISS:          0 MSHR_MERGE:          0
cpu10->cpu10_ITLB TRANSLATION  ACCESS:          0 HIT:          0 MISS:          0 MSHR_MERGE:          0
cpu10->cpu10_ITLB PREFETCH REQUESTED:          0 ISSUED:          0 USEFUL:          0 USELESS:          0
cpu10->cpu10_ITLB AVERAGE MISS LATENCY: 4 cycles
cpu10_ITLB COHERENCE INVALIDATIONS:          0
cpu10_ITLB COHERENCE WRITE-HIT OTHER-SHARER EVENTS:          0
cpu10_DTLB COHERENCE INVALIDATIONS:          0
cpu10_DTLB COHERENCE WRITE-HIT OTHER-SHARER EVENTS:          0
cpu0->cpu0_STLB TOTAL        ACCESS:    4693791 HIT:    4546114 MISS:     147677 MSHR_MERGE:          0
cpu0->cpu0_STLB LOAD         ACCESS:    4693791 HIT:    4546114 MISS:     147677 MSHR_MERGE:          0
cpu0->cpu0_STLB RFO          ACCESS:          0 HIT:          0 MISS:          0 MSHR_MERGE:          0
cpu0->cpu0_STLB PREFETCH     ACCESS:          0 HIT:          0 MISS:          0 MSHR_MERGE:          0
cpu0->cpu0_STLB WRITE        ACCESS:          0 HIT:          0 MISS:          0 MSHR_MERGE:          0
cpu0->cpu0_STLB TRANSLATION  ACCESS:          0 HIT:          0 MISS:          0 MSHR_MERGE:          0
cpu0->cpu0_STLB PREFETCH REQUESTED:          0 ISSUED:          0 USEFUL:          0 USELESS:          0
cpu0->cpu0_STLB AVERAGE MISS LATENCY: 772.6 cycles
cpu0_STLB COHERENCE INVALIDATIONS:          0
cpu0_STLB COHERENCE WRITE-HIT OTHER-SHARER EVENTS:          0
cpu0->cpu0_L2C TOTAL        ACCESS:   32540856 HIT:   14893868 MISS:   17646988 MSHR_MERGE:          0
cpu0->cpu0_L2C LOAD         ACCESS:   21237264 HIT:    6770384 MISS:   14466880 MSHR_MERGE:          0
cpu0->cpu0_L2C RFO          ACCESS:    3452195 HIT:     505613 MISS:    2946582 MSHR_MERGE:          0
cpu0->cpu0_L2C PREFETCH     ACCESS:          0 HIT:          0 MISS:          0 MSHR_MERGE:          0
cpu0->cpu0_L2C WRITE        ACCESS:    7578995 HIT:    7578327 MISS:        668 MSHR_MERGE:          0
cpu0->cpu0_L2C TRANSLATION  ACCESS:     272402 HIT:      39544 MISS:     232858 MSHR_MERGE:          0
cpu0->cpu0_L2C PREFETCH REQUESTED:          0 ISSUED:          0 USEFUL:          0 USELESS:          0
cpu0->cpu0_L2C AVERAGE MISS LATENCY: 232 cycles
cpu0_L2C COHERENCE INVALIDATIONS:          0
cpu0_L2C COHERENCE WRITE-HIT OTHER-SHARER EVENTS:          0
cpu0->cpu0_L1I TOTAL        ACCESS:   31130120 HIT:   31117881 MISS:      12239 MSHR_MERGE:       6012
cpu0->cpu0_L1I LOAD         ACCESS:   31130120 HIT:   31117881 MISS:      12239 MSHR_MERGE:       6012
cpu0->cpu0_L1I RFO          ACCESS:          0 HIT:          0 MISS:          0 MSHR_MERGE:          0
cpu0->cpu0_L1I PREFETCH     ACCESS:          0 HIT:          0 MISS:          0 MSHR_MERGE:          0
cpu0->cpu0_L1I WRITE        ACCESS:          0 HIT:          0 MISS:          0 MSHR_MERGE:          0
cpu0->cpu0_L1I TRANSLATION  ACCESS:          0 HIT:          0 MISS:          0 MSHR_MERGE:          0
cpu0->cpu0_L1I PREFETCH REQUESTED:          0 ISSUED:          0 USEFUL:          0 USELESS:          0
cpu0->cpu0_L1I AVERAGE MISS LATENCY: 321.7 cycles
cpu0_L1I COHERENCE INVALIDATIONS:          0
cpu0_L1I COHERENCE WRITE-HIT OTHER-SHARER EVENTS:          0
cpu0->cpu0_L1D TOTAL        ACCESS:  103174174 HIT:   74642055 MISS:   28532119 MSHR_MERGE:    3574945
cpu0->cpu0_L1D LOAD         ACCESS:   44808284 HIT:   22636071 MISS:   22172213 MSHR_MERGE:     940904
cpu0->cpu0_L1D RFO          ACCESS:          0 HIT:          0 MISS:          0 MSHR_MERGE:          0
cpu0->cpu0_L1D PREFETCH     ACCESS:          0 HIT:          0 MISS:          0 MSHR_MERGE:          0
cpu0->cpu0_L1D WRITE        ACCESS:   58065366 HIT:   51984012 MISS:    6081354 MSHR_MERGE:    2627891
cpu0->cpu0_L1D TRANSLATION  ACCESS:     300524 HIT:      21972 MISS:     278552 MSHR_MERGE:       6150
cpu0->cpu0_L1D PREFETCH REQUESTED:          0 ISSUED:          0 USEFUL:          0 USELESS:          0
cpu0->cpu0_L1D AVERAGE MISS LATENCY: 171.7 cycles
cpu0_L1D COHERENCE INVALIDATIONS:          0
cpu0_L1D COHERENCE WRITE-HIT OTHER-SHARER EVENTS:          0
cpu0->cpu0_ITLB TOTAL        ACCESS:   29934398 HIT:   29933328 MISS:       1070 MSHR_MERGE:        721
cpu0->cpu0_ITLB LOAD         ACCESS:   29934398 HIT:   29933328 MISS:       1070 MSHR_MERGE:        721
cpu0->cpu0_ITLB RFO          ACCESS:          0 HIT:          0 MISS:          0 MSHR_MERGE:          0
cpu0->cpu0_ITLB PREFETCH     ACCESS:          0 HIT:          0 MISS:          0 MSHR_MERGE:          0
cpu0->cpu0_ITLB WRITE        ACCESS:          0 HIT:          0 MISS:          0 MSHR_MERGE:          0
cpu0->cpu0_ITLB TRANSLATION  ACCESS:          0 HIT:          0 MISS:          0 MSHR_MERGE:          0
cpu0->cpu0_ITLB PREFETCH REQUESTED:          0 ISSUED:          0 USEFUL:          0 USELESS:          0
cpu0->cpu0_ITLB AVERAGE MISS LATENCY: 555.5 cycles
cpu0_ITLB COHERENCE INVALIDATIONS:          0
cpu0_ITLB COHERENCE WRITE-HIT OTHER-SHARER EVENTS:          0
cpu0->cpu0_DTLB TOTAL        ACCESS:   99588674 HIT:   94690514 MISS:    4898160 MSHR_MERGE:     204718
cpu0->cpu0_DTLB LOAD         ACCESS:   99588674 HIT:   94690514 MISS:    4898160 MSHR_MERGE:     204718
cpu0->cpu0_DTLB RFO          ACCESS:          0 HIT:          0 MISS:          0 MSHR_MERGE:          0
cpu0->cpu0_DTLB PREFETCH     ACCESS:          0 HIT:          0 MISS:          0 MSHR_MERGE:          0
cpu0->cpu0_DTLB WRITE        ACCESS:          0 HIT:          0 MISS:          0 MSHR_MERGE:          0
cpu0->cpu0_DTLB TRANSLATION  ACCESS:          0 HIT:          0 MISS:          0 MSHR_MERGE:          0
cpu0->cpu0_DTLB PREFETCH REQUESTED:          0 ISSUED:          0 USEFUL:          0 USELESS:          0
cpu0->cpu0_DTLB AVERAGE MISS LATENCY: 28.3 cycles
cpu0_DTLB COHERENCE INVALIDATIONS:          0
cpu0_DTLB COHERENCE WRITE-HIT OTHER-SHARER EVENTS:          0
cpu0->LLC TOTAL        ACCESS:   24063385 HIT:    9615220 MISS:   14448165 MSHR_MERGE:    5443365
cpu0->LLC LOAD         ACCESS:   14466869 HIT:    6208652 MISS:    8258217 MSHR_MERGE:    4234824
cpu0->LLC RFO          ACCESS:    2946582 HIT:     713024 MISS:    2233558 MSHR_MERGE:    1208541
cpu0->LLC PREFETCH     ACCESS:          0 HIT:          0 MISS:          0 MSHR_MERGE:          0
cpu0->LLC WRITE        ACCESS:    6417076 HIT:    2693513 MISS:    3723563 MSHR_MERGE:          0
cpu0->LLC TRANSLATION  ACCESS:     232858 HIT:         31 MISS:     232827 MSHR_MERGE:          0
cpu0->LLC PREFETCH REQUESTED:          0 ISSUED:          0 USEFUL:          0 USELESS:          0
cpu0->LLC AVERAGE MISS LATENCY: 624.7 cycles
cpu1->LLC TOTAL        ACCESS:    7635225 HIT:    2345787 MISS:    5289438 MSHR_MERGE:    2526616
cpu1->LLC LOAD         ACCESS:    7588183 HIT:    2345787 MISS:    5242396 MSHR_MERGE:    2526616
cpu1->LLC RFO          ACCESS:          0 HIT:          0 MISS:          0 MSHR_MERGE:          0
cpu1->LLC PREFETCH     ACCESS:          0 HIT:          0 MISS:          0 MSHR_MERGE:          0
cpu1->LLC WRITE        ACCESS:          0 HIT:          0 MISS:          0 MSHR_MERGE:          0
cpu1->LLC TRANSLATION  ACCESS:      47042 HIT:          0 MISS:      47042 MSHR_MERGE:          0
cpu1->LLC PREFETCH REQUESTED:          0 ISSUED:          0 USEFUL:          0 USELESS:          0
cpu1->LLC AVERAGE MISS LATENCY: 2293 cycles
cpu8->LLC TOTAL        ACCESS:   24055173 HIT:    9670487 MISS:   14384686 MSHR_MERGE:    4950473
cpu8->LLC LOAD         ACCESS:   14460111 HIT:    6205660 MISS:    8254451 MSHR_MERGE:    3948246
cpu8->LLC RFO          ACCESS:    2947934 HIT:     715274 MISS:    2232660 MSHR_MERGE:    1002227
cpu8->LLC PREFETCH     ACCESS:          0 HIT:          0 MISS:          0 MSHR_MERGE:          0
cpu8->LLC WRITE        ACCESS:    6414335 HIT:    2749499 MISS:    3664836 MSHR_MERGE:          0
cpu8->LLC TRANSLATION  ACCESS:     232793 HIT:         54 MISS:     232739 MSHR_MERGE:          0
cpu8->LLC PREFETCH REQUESTED:          0 ISSUED:          0 USEFUL:          0 USELESS:          0
cpu8->LLC AVERAGE MISS LATENCY: 663.5 cycles
cpu9->LLC TOTAL        ACCESS:    7634749 HIT:    2346443 MISS:    5288306 MSHR_MERGE:    2701641
cpu9->LLC LOAD         ACCESS:    7587704 HIT:    2346443 MISS:    5241261 MSHR_MERGE:    2701641
cpu9->LLC RFO          ACCESS:          0 HIT:          0 MISS:          0 MSHR_MERGE:          0
cpu9->LLC PREFETCH     ACCESS:          0 HIT:          0 MISS:          0 MSHR_MERGE:          0
cpu9->LLC WRITE        ACCESS:          0 HIT:          0 MISS:          0 MSHR_MERGE:          0
cpu9->LLC TRANSLATION  ACCESS:      47045 HIT:          0 MISS:      47045 MSHR_MERGE:          0
cpu9->LLC PREFETCH REQUESTED:          0 ISSUED:          0 USEFUL:          0 USELESS:          0
cpu9->LLC AVERAGE MISS LATENCY: 2148 cycles
LLC COHERENCE INVALIDATIONS:    6500502
LLC COHERENCE WRITE-HIT OTHER-SHARER EVENTS:    5419534

DRAM Statistics

Channel 0 RQ ROW_BUFFER_HIT:     575095
  ROW_BUFFER_MISS:   15799803
  AVG DBUS CONGESTED CYCLE: 7.336
Channel 0 WQ ROW_BUFFER_HIT:     891004
  ROW_BUFFER_MISS:    6313510
  FULL:      30336
Channel 0 REFRESHES ISSUED:      57771

VMEM ALIASED FILLS (cross-CPU shared-page hits): 383398
