[VMEM] WARNING: physical memory size is smaller than virtual memory size.

*** ChampSim Multicore Out-of-Order Simulator ***
Warmup Instructions: 50000000
Simulation Instructions: 100000000
Number of CPUs: 16
Page size: 4096

Off-chip DRAM Size: 16 GiB Channels: 1 Width: 64-bit Data Rate: 3205 MT/s
Heartbeat CPU 4 instructions: 10000001 cycles: 2508565 heartbeat IPC: 3.986 cumulative IPC: 3.986 (Simulation time: 00 hr 16 min 19 sec)
Heartbeat CPU 13 instructions: 10000003 cycles: 2508660 heartbeat IPC: 3.986 cumulative IPC: 3.986 (Simulation time: 00 hr 16 min 19 sec)
Heartbeat CPU 5 instructions: 10000003 cycles: 2508682 heartbeat IPC: 3.986 cumulative IPC: 3.986 (Simulation time: 00 hr 16 min 19 sec)
Heartbeat CPU 12 instructions: 10000001 cycles: 2508754 heartbeat IPC: 3.986 cumulative IPC: 3.986 (Simulation time: 00 hr 16 min 19 sec)
Heartbeat CPU 11 instructions: 10000002 cycles: 2508785 heartbeat IPC: 3.986 cumulative IPC: 3.986 (Simulation time: 00 hr 16 min 19 sec)
Heartbeat CPU 3 instructions: 10000002 cycles: 2508786 heartbeat IPC: 3.986 cumulative IPC: 3.986 (Simulation time: 00 hr 16 min 19 sec)
Heartbeat CPU 14 instructions: 10000000 cycles: 2509012 heartbeat IPC: 3.986 cumulative IPC: 3.986 (Simulation time: 00 hr 16 min 19 sec)
Heartbeat CPU 6 instructions: 10000002 cycles: 2509013 heartbeat IPC: 3.986 cumulative IPC: 3.986 (Simulation time: 00 hr 16 min 19 sec)
Heartbeat CPU 7 instructions: 10000002 cycles: 2509062 heartbeat IPC: 3.986 cumulative IPC: 3.986 (Simulation time: 00 hr 16 min 19 sec)
Heartbeat CPU 15 instructions: 10000003 cycles: 2509122 heartbeat IPC: 3.985 cumulative IPC: 3.985 (Simulation time: 00 hr 16 min 19 sec)
Heartbeat CPU 2 instructions: 10000003 cycles: 2509620 heartbeat IPC: 3.985 cumulative IPC: 3.985 (Simulation time: 00 hr 16 min 19 sec)
Heartbeat CPU 10 instructions: 10000003 cycles: 2509812 heartbeat IPC: 3.984 cumulative IPC: 3.984 (Simulation time: 00 hr 16 min 19 sec)
Heartbeat CPU 1 instructions: 10000001 cycles: 4564770 heartbeat IPC: 2.191 cumulative IPC: 2.191 (Simulation time: 00 hr 29 min 01 sec)
Heartbeat CPU 9 instructions: 10000001 cycles: 4564919 heartbeat IPC: 2.191 cumulative IPC: 2.191 (Simulation time: 00 hr 29 min 02 sec)
Heartbeat CPU 4 instructions: 20000004 cycles: 5008910 heartbeat IPC: 3.999 cumulative IPC: 3.993 (Simulation time: 00 hr 31 min 49 sec)
Heartbeat CPU 13 instructions: 20000006 cycles: 5008995 heartbeat IPC: 3.999 cumulative IPC: 3.993 (Simulation time: 00 hr 31 min 49 sec)
Heartbeat CPU 11 instructions: 20000004 cycles: 5009003 heartbeat IPC: 4 cumulative IPC: 3.993 (Simulation time: 00 hr 31 min 49 sec)
Heartbeat CPU 3 instructions: 20000004 cycles: 5009004 heartbeat IPC: 4 cumulative IPC: 3.993 (Simulation time: 00 hr 31 min 49 sec)
Heartbeat CPU 5 instructions: 20000005 cycles: 5009022 heartbeat IPC: 3.999 cumulative IPC: 3.993 (Simulation time: 00 hr 31 min 49 sec)
Heartbeat CPU 12 instructions: 20000004 cycles: 5009099 heartbeat IPC: 3.999 cumulative IPC: 3.993 (Simulation time: 00 hr 31 min 49 sec)
Heartbeat CPU 14 instructions: 20000001 cycles: 5009229 heartbeat IPC: 4 cumulative IPC: 3.993 (Simulation time: 00 hr 31 min 49 sec)
Heartbeat CPU 6 instructions: 20000005 cycles: 5009233 heartbeat IPC: 4 cumulative IPC: 3.993 (Simulation time: 00 hr 31 min 49 sec)
Heartbeat CPU 7 instructions: 20000003 cycles: 5009283 heartbeat IPC: 4 cumulative IPC: 3.993 (Simulation time: 00 hr 31 min 49 sec)
Heartbeat CPU 15 instructions: 20000003 cycles: 5009340 heartbeat IPC: 4 cumulative IPC: 3.993 (Simulation time: 00 hr 31 min 49 sec)
Heartbeat CPU 2 instructions: 20000003 cycles: 5010460 heartbeat IPC: 3.999 cumulative IPC: 3.992 (Simulation time: 00 hr 31 min 49 sec)
Heartbeat CPU 10 instructions: 20000003 cycles: 5010646 heartbeat IPC: 3.999 cumulative IPC: 3.992 (Simulation time: 00 hr 31 min 49 sec)
Heartbeat CPU 4 instructions: 30000004 cycles: 7508910 heartbeat IPC: 4 cumulative IPC: 3.995 (Simulation time: 00 hr 50 min 23 sec)
Heartbeat CPU 13 instructions: 30000006 cycles: 7508995 heartbeat IPC: 4 cumulative IPC: 3.995 (Simulation time: 00 hr 50 min 23 sec)
Heartbeat CPU 11 instructions: 30000004 cycles: 7509003 heartbeat IPC: 4 cumulative IPC: 3.995 (Simulation time: 00 hr 50 min 23 sec)
Heartbeat CPU 3 instructions: 30000004 cycles: 7509004 heartbeat IPC: 4 cumulative IPC: 3.995 (Simulation time: 00 hr 50 min 23 sec)
Heartbeat CPU 5 instructions: 30000005 cycles: 7509022 heartbeat IPC: 4 cumulative IPC: 3.995 (Simulation time: 00 hr 50 min 23 sec)
Heartbeat CPU 12 instructions: 30000004 cycles: 7509099 heartbeat IPC: 4 cumulative IPC: 3.995 (Simulation time: 00 hr 50 min 23 sec)
Heartbeat CPU 14 instructions: 30000001 cycles: 7509229 heartbeat IPC: 4 cumulative IPC: 3.995 (Simulation time: 00 hr 50 min 23 sec)
Heartbeat CPU 6 instructions: 30000005 cycles: 7509233 heartbeat IPC: 4 cumulative IPC: 3.995 (Simulation time: 00 hr 50 min 23 sec)
Heartbeat CPU 7 instructions: 30000003 cycles: 7509283 heartbeat IPC: 4 cumulative IPC: 3.995 (Simulation time: 00 hr 50 min 24 sec)
Heartbeat CPU 15 instructions: 30000003 cycles: 7509340 heartbeat IPC: 4 cumulative IPC: 3.995 (Simulation time: 00 hr 50 min 24 sec)
Heartbeat CPU 2 instructions: 30000003 cycles: 7510460 heartbeat IPC: 4 cumulative IPC: 3.994 (Simulation time: 00 hr 50 min 24 sec)
Heartbeat CPU 10 instructions: 30000003 cycles: 7510646 heartbeat IPC: 4 cumulative IPC: 3.994 (Simulation time: 00 hr 50 min 24 sec)
Heartbeat CPU 9 instructions: 20000004 cycles: 9005834 heartbeat IPC: 2.252 cumulative IPC: 2.221 (Simulation time: 01 hr 00 min 42 sec)
Heartbeat CPU 1 instructions: 20000001 cycles: 9005841 heartbeat IPC: 2.252 cumulative IPC: 2.221 (Simulation time: 01 hr 00 min 42 sec)
Heartbeat CPU 4 instructions: 40000004 cycles: 10008910 heartbeat IPC: 4 cumulative IPC: 3.996 (Simulation time: 01 hr 08 min 06 sec)
Heartbeat CPU 13 instructions: 40000006 cycles: 10008995 heartbeat IPC: 4 cumulative IPC: 3.996 (Simulation time: 01 hr 08 min 06 sec)
Heartbeat CPU 11 instructions: 40000004 cycles: 10009003 heartbeat IPC: 4 cumulative IPC: 3.996 (Simulation time: 01 hr 08 min 06 sec)
Heartbeat CPU 3 instructions: 40000004 cycles: 10009004 heartbeat IPC: 4 cumulative IPC: 3.996 (Simulation time: 01 hr 08 min 06 sec)
Heartbeat CPU 5 instructions: 40000005 cycles: 10009022 heartbeat IPC: 4 cumulative IPC: 3.996 (Simulation time: 01 hr 08 min 06 sec)
Heartbeat CPU 12 instructions: 40000004 cycles: 10009099 heartbeat IPC: 4 cumulative IPC: 3.996 (Simulation time: 01 hr 08 min 06 sec)
Heartbeat CPU 14 instructions: 40000001 cycles: 10009229 heartbeat IPC: 4 cumulative IPC: 3.996 (Simulation time: 01 hr 08 min 06 sec)
Heartbeat CPU 6 instructions: 40000005 cycles: 10009233 heartbeat IPC: 4 cumulative IPC: 3.996 (Simulation time: 01 hr 08 min 06 sec)
Heartbeat CPU 7 instructions: 40000003 cycles: 10009283 heartbeat IPC: 4 cumulative IPC: 3.996 (Simulation time: 01 hr 08 min 06 sec)
Heartbeat CPU 15 instructions: 40000003 cycles: 10009340 heartbeat IPC: 4 cumulative IPC: 3.996 (Simulation time: 01 hr 08 min 06 sec)
Heartbeat CPU 2 instructions: 40000003 cycles: 10010460 heartbeat IPC: 4 cumulative IPC: 3.996 (Simulation time: 01 hr 08 min 07 sec)
Heartbeat CPU 10 instructions: 40000003 cycles: 10010646 heartbeat IPC: 4 cumulative IPC: 3.996 (Simulation time: 01 hr 08 min 07 sec)
*** Reached end of trace: (2, "/home/harshraj/COALESCE-Hashed-Perceptron-Cache-Replacement-Policy/simulator/traces/ocean_8t/ocean2.champsimtrace")
*** Reached end of trace: (10, "/home/harshraj/COALESCE-Hashed-Perceptron-Cache-Replacement-Policy/simulator/traces/ocean_8t/ocean2.champsimtrace")
*** Reached end of trace: (13, "/home/harshraj/COALESCE-Hashed-Perceptron-Cache-Replacement-Policy/simulator/traces/ocean_8t/ocean5.champsimtrace")
*** Reached end of trace: (5, "/home/harshraj/COALESCE-Hashed-Perceptron-Cache-Replacement-Policy/simulator/traces/ocean_8t/ocean5.champsimtrace")
*** Reached end of trace: (4, "/home/harshraj/COALESCE-Hashed-Perceptron-Cache-Replacement-Policy/simulator/traces/ocean_8t/ocean4.champsimtrace")
*** Reached end of trace: (12, "/home/harshraj/COALESCE-Hashed-Perceptron-Cache-Replacement-Policy/simulator/traces/ocean_8t/ocean4.champsimtrace")
*** Reached end of trace: (14, "/home/harshraj/COALESCE-Hashed-Perceptron-Cache-Replacement-Policy/simulator/traces/ocean_8t/ocean6.champsimtrace")
*** Reached end of trace: (6, "/home/harshraj/COALESCE-Hashed-Perceptron-Cache-Replacement-Policy/simulator/traces/ocean_8t/ocean6.champsimtrace")
*** Reached end of trace: (11, "/home/harshraj/COALESCE-Hashed-Perceptron-Cache-Replacement-Policy/simulator/traces/ocean_8t/ocean3.champsimtrace")
*** Reached end of trace: (3, "/home/harshraj/COALESCE-Hashed-Perceptron-Cache-Replacement-Policy/simulator/traces/ocean_8t/ocean3.champsimtrace")
*** Reached end of trace: (7, "/home/harshraj/COALESCE-Hashed-Perceptron-Cache-Replacement-Policy/simulator/traces/ocean_8t/ocean7.champsimtrace")
*** Reached end of trace: (15, "/home/harshraj/COALESCE-Hashed-Perceptron-Cache-Replacement-Policy/simulator/traces/ocean_8t/ocean7.champsimtrace")
Warmup finished CPU 4 instructions: 50000002 cycles: 12510913 cumulative IPC: 3.997 (Simulation time: 01 hr 24 min 59 sec)
Heartbeat CPU 4 instructions: 50000006 cycles: 12510914 heartbeat IPC: 3.997 cumulative IPC: 3.997 (Simulation time: 01 hr 24 min 59 sec)
Warmup finished CPU 13 instructions: 50000001 cycles: 12510999 cumulative IPC: 3.996 (Simulation time: 01 hr 24 min 59 sec)
Heartbeat CPU 13 instructions: 50000009 cycles: 12511001 heartbeat IPC: 3.997 cumulative IPC: 3.996 (Simulation time: 01 hr 24 min 59 sec)
Warmup finished CPU 11 instructions: 50000000 cycles: 12511006 cumulative IPC: 3.996 (Simulation time: 01 hr 24 min 59 sec)
Heartbeat CPU 11 instructions: 50000004 cycles: 12511007 heartbeat IPC: 3.997 cumulative IPC: 3.996 (Simulation time: 01 hr 24 min 59 sec)
Warmup finished CPU 3 instructions: 50000000 cycles: 12511007 cumulative IPC: 3.996 (Simulation time: 01 hr 24 min 59 sec)
Heartbeat CPU 3 instructions: 50000004 cycles: 12511008 heartbeat IPC: 3.997 cumulative IPC: 3.996 (Simulation time: 01 hr 24 min 59 sec)
Warmup finished CPU 5 instructions: 50000001 cycles: 12511028 cumulative IPC: 3.996 (Simulation time: 01 hr 24 min 59 sec)
Heartbeat CPU 5 instructions: 50000005 cycles: 12511029 heartbeat IPC: 3.997 cumulative IPC: 3.996 (Simulation time: 01 hr 24 min 59 sec)
Warmup finished CPU 12 instructions: 50000002 cycles: 12511102 cumulative IPC: 3.996 (Simulation time: 01 hr 24 min 59 sec)
Heartbeat CPU 12 instructions: 50000006 cycles: 12511103 heartbeat IPC: 3.997 cumulative IPC: 3.996 (Simulation time: 01 hr 24 min 59 sec)
Heartbeat CPU 14 instructions: 50000002 cycles: 12511231 heartbeat IPC: 3.997 cumulative IPC: 3.996 (Simulation time: 01 hr 24 min 59 sec)
Warmup finished CPU 14 instructions: 50000002 cycles: 12511231 cumulative IPC: 3.996 (Simulation time: 01 hr 24 min 59 sec)
Warmup finished CPU 6 instructions: 50000002 cycles: 12511240 cumulative IPC: 3.996 (Simulation time: 01 hr 24 min 59 sec)
Heartbeat CPU 6 instructions: 50000006 cycles: 12511241 heartbeat IPC: 3.997 cumulative IPC: 3.996 (Simulation time: 01 hr 24 min 59 sec)
Heartbeat CPU 7 instructions: 50000003 cycles: 12511268 heartbeat IPC: 3.997 cumulative IPC: 3.996 (Simulation time: 01 hr 24 min 59 sec)
Warmup finished CPU 7 instructions: 50000003 cycles: 12511268 cumulative IPC: 3.996 (Simulation time: 01 hr 24 min 59 sec)
Heartbeat CPU 15 instructions: 50000003 cycles: 12511340 heartbeat IPC: 3.997 cumulative IPC: 3.996 (Simulation time: 01 hr 24 min 59 sec)
Warmup finished CPU 15 instructions: 50000003 cycles: 12511340 cumulative IPC: 3.996 (Simulation time: 01 hr 24 min 59 sec)
Warmup finished CPU 2 instructions: 50000002 cycles: 12512865 cumulative IPC: 3.996 (Simulation time: 01 hr 24 min 59 sec)
Heartbeat CPU 2 instructions: 50000006 cycles: 12512866 heartbeat IPC: 3.996 cumulative IPC: 3.996 (Simulation time: 01 hr 24 min 59 sec)
Warmup finished CPU 10 instructions: 50000002 cycles: 12513048 cumulative IPC: 3.996 (Simulation time: 01 hr 24 min 59 sec)
Heartbeat CPU 10 instructions: 50000006 cycles: 12513049 heartbeat IPC: 3.996 cumulative IPC: 3.996 (Simulation time: 01 hr 24 min 59 sec)
Heartbeat CPU 1 instructions: 30000002 cycles: 14307732 heartbeat IPC: 1.886 cumulative IPC: 2.097 (Simulation time: 01 hr 36 min 31 sec)
Heartbeat CPU 9 instructions: 30000006 cycles: 14307733 heartbeat IPC: 1.886 cumulative IPC: 2.097 (Simulation time: 01 hr 36 min 31 sec)
Heartbeat CPU 4 instructions: 60000006 cycles: 15010914 heartbeat IPC: 4 cumulative IPC: 3.997 (Simulation time: 01 hr 41 min 24 sec)
Heartbeat CPU 13 instructions: 60000009 cycles: 15011001 heartbeat IPC: 4 cumulative IPC: 3.997 (Simulation time: 01 hr 41 min 24 sec)
Heartbeat CPU 11 instructions: 60000004 cycles: 15011007 heartbeat IPC: 4 cumulative IPC: 3.997 (Simulation time: 01 hr 41 min 24 sec)
Heartbeat CPU 3 instructions: 60000004 cycles: 15011008 heartbeat IPC: 4 cumulative IPC: 3.997 (Simulation time: 01 hr 41 min 24 sec)
Heartbeat CPU 5 instructions: 60000005 cycles: 15011029 heartbeat IPC: 4 cumulative IPC: 3.997 (Simulation time: 01 hr 41 min 24 sec)
Heartbeat CPU 12 instructions: 60000006 cycles: 15011103 heartbeat IPC: 4 cumulative IPC: 3.997 (Simulation time: 01 hr 41 min 24 sec)
Heartbeat CPU 14 instructions: 60000002 cycles: 15011231 heartbeat IPC: 4 cumulative IPC: 3.997 (Simulation time: 01 hr 41 min 24 sec)
Heartbeat CPU 6 instructions: 60000006 cycles: 15011241 heartbeat IPC: 4 cumulative IPC: 3.997 (Simulation time: 01 hr 41 min 24 sec)
Heartbeat CPU 7 instructions: 60000003 cycles: 15011268 heartbeat IPC: 4 cumulative IPC: 3.997 (Simulation time: 01 hr 41 min 24 sec)
Heartbeat CPU 15 instructions: 60000003 cycles: 15011340 heartbeat IPC: 4 cumulative IPC: 3.997 (Simulation time: 01 hr 41 min 24 sec)
Heartbeat CPU 2 instructions: 60000006 cycles: 15012866 heartbeat IPC: 4 cumulative IPC: 3.997 (Simulation time: 01 hr 41 min 24 sec)
Heartbeat CPU 10 instructions: 60000006 cycles: 15013049 heartbeat IPC: 4 cumulative IPC: 3.997 (Simulation time: 01 hr 41 min 24 sec)
Heartbeat CPU 4 instructions: 70000006 cycles: 17510914 heartbeat IPC: 4 cumulative IPC: 3.998 (Simulation time: 01 hr 58 min 39 sec)
Heartbeat CPU 13 instructions: 70000009 cycles: 17511001 heartbeat IPC: 4 cumulative IPC: 3.997 (Simulation time: 01 hr 58 min 39 sec)
Heartbeat CPU 11 instructions: 70000004 cycles: 17511007 heartbeat IPC: 4 cumulative IPC: 3.997 (Simulation time: 01 hr 58 min 39 sec)
Heartbeat CPU 3 instructions: 70000004 cycles: 17511008 heartbeat IPC: 4 cumulative IPC: 3.997 (Simulation time: 01 hr 58 min 39 sec)
Heartbeat CPU 5 instructions: 70000005 cycles: 17511029 heartbeat IPC: 4 cumulative IPC: 3.997 (Simulation time: 01 hr 58 min 39 sec)
Heartbeat CPU 12 instructions: 70000006 cycles: 17511103 heartbeat IPC: 4 cumulative IPC: 3.997 (Simulation time: 01 hr 58 min 39 sec)
Heartbeat CPU 14 instructions: 70000002 cycles: 17511231 heartbeat IPC: 4 cumulative IPC: 3.997 (Simulation time: 01 hr 58 min 39 sec)
Heartbeat CPU 6 instructions: 70000006 cycles: 17511241 heartbeat IPC: 4 cumulative IPC: 3.997 (Simulation time: 01 hr 58 min 39 sec)
Heartbeat CPU 7 instructions: 70000003 cycles: 17511268 heartbeat IPC: 4 cumulative IPC: 3.997 (Simulation time: 01 hr 58 min 39 sec)
Heartbeat CPU 15 instructions: 70000003 cycles: 17511340 heartbeat IPC: 4 cumulative IPC: 3.997 (Simulation time: 01 hr 58 min 39 sec)
Heartbeat CPU 2 instructions: 70000006 cycles: 17512866 heartbeat IPC: 4 cumulative IPC: 3.997 (Simulation time: 01 hr 58 min 40 sec)
Heartbeat CPU 10 instructions: 70000006 cycles: 17513049 heartbeat IPC: 4 cumulative IPC: 3.997 (Simulation time: 01 hr 58 min 40 sec)
Heartbeat CPU 1 instructions: 40000003 cycles: 18537226 heartbeat IPC: 2.364 cumulative IPC: 2.158 (Simulation time: 02 hr 05 min 57 sec)
Heartbeat CPU 9 instructions: 40000008 cycles: 18537227 heartbeat IPC: 2.364 cumulative IPC: 2.158 (Simulation time: 02 hr 05 min 57 sec)
Heartbeat CPU 4 instructions: 80000006 cycles: 20010914 heartbeat IPC: 4 cumulative IPC: 3.998 (Simulation time: 02 hr 15 min 28 sec)
Heartbeat CPU 13 instructions: 80000009 cycles: 20011001 heartbeat IPC: 4 cumulative IPC: 3.998 (Simulation time: 02 hr 15 min 28 sec)
Heartbeat CPU 11 instructions: 80000004 cycles: 20011007 heartbeat IPC: 4 cumulative IPC: 3.998 (Simulation time: 02 hr 15 min 28 sec)
Heartbeat CPU 3 instructions: 80000004 cycles: 20011008 heartbeat IPC: 4 cumulative IPC: 3.998 (Simulation time: 02 hr 15 min 28 sec)
Heartbeat CPU 5 instructions: 80000005 cycles: 20011029 heartbeat IPC: 4 cumulative IPC: 3.998 (Simulation time: 02 hr 15 min 28 sec)
Heartbeat CPU 12 instructions: 80000006 cycles: 20011103 heartbeat IPC: 4 cumulative IPC: 3.998 (Simulation time: 02 hr 15 min 28 sec)
Heartbeat CPU 14 instructions: 80000002 cycles: 20011231 heartbeat IPC: 4 cumulative IPC: 3.998 (Simulation time: 02 hr 15 min 28 sec)
Heartbeat CPU 6 instructions: 80000006 cycles: 20011241 heartbeat IPC: 4 cumulative IPC: 3.998 (Simulation time: 02 hr 15 min 28 sec)
Heartbeat CPU 7 instructions: 80000003 cycles: 20011268 heartbeat IPC: 4 cumulative IPC: 3.998 (Simulation time: 02 hr 15 min 28 sec)
Heartbeat CPU 15 instructions: 80000003 cycles: 20011340 heartbeat IPC: 4 cumulative IPC: 3.998 (Simulation time: 02 hr 15 min 28 sec)
Heartbeat CPU 2 instructions: 80000006 cycles: 20012866 heartbeat IPC: 4 cumulative IPC: 3.997 (Simulation time: 02 hr 15 min 29 sec)
Heartbeat CPU 10 instructions: 80000006 cycles: 20013049 heartbeat IPC: 4 cumulative IPC: 3.997 (Simulation time: 02 hr 15 min 29 sec)
*** Reached end of trace: (9, "/home/harshraj/COALESCE-Hashed-Perceptron-Cache-Replacement-Policy/simulator/traces/ocean_8t/ocean1.champsimtrace")
*** Reached end of trace: (1, "/home/harshraj/COALESCE-Hashed-Perceptron-Cache-Replacement-Policy/simulator/traces/ocean_8t/ocean1.champsimtrace")
Heartbeat CPU 8 instructions: 10000000 cycles: 20621890 heartbeat IPC: 0.4849 cumulative IPC: 0.4849 (Simulation time: 02 hr 19 min 41 sec)
Heartbeat CPU 0 instructions: 10000000 cycles: 20622012 heartbeat IPC: 0.4849 cumulative IPC: 0.4849 (Simulation time: 02 hr 19 min 41 sec)
Warmup finished CPU 1 instructions: 50000000 cycles: 22402696 cumulative IPC: 2.232 (Simulation time: 02 hr 32 min 04 sec)
Heartbeat CPU 1 instructions: 50000004 cycles: 22402697 heartbeat IPC: 2.587 cumulative IPC: 2.232 (Simulation time: 02 hr 32 min 04 sec)
Warmup finished CPU 9 instructions: 50000002 cycles: 22406643 cumulative IPC: 2.231 (Simulation time: 02 hr 32 min 06 sec)
Heartbeat CPU 9 instructions: 50000010 cycles: 22406645 heartbeat IPC: 2.584 cumulative IPC: 2.231 (Simulation time: 02 hr 32 min 06 sec)
Heartbeat CPU 4 instructions: 90000006 cycles: 22510914 heartbeat IPC: 4 cumulative IPC: 3.998 (Simulation time: 02 hr 32 min 49 sec)
Heartbeat CPU 13 instructions: 90000009 cycles: 22511001 heartbeat IPC: 4 cumulative IPC: 3.998 (Simulation time: 02 hr 32 min 49 sec)
Heartbeat CPU 11 instructions: 90000004 cycles: 22511007 heartbeat IPC: 4 cumulative IPC: 3.998 (Simulation time: 02 hr 32 min 49 sec)
Heartbeat CPU 3 instructions: 90000004 cycles: 22511008 heartbeat IPC: 4 cumulative IPC: 3.998 (Simulation time: 02 hr 32 min 49 sec)
Heartbeat CPU 5 instructions: 90000005 cycles: 22511029 heartbeat IPC: 4 cumulative IPC: 3.998 (Simulation time: 02 hr 32 min 49 sec)
Heartbeat CPU 12 instructions: 90000006 cycles: 22511103 heartbeat IPC: 4 cumulative IPC: 3.998 (Simulation time: 02 hr 32 min 49 sec)
Heartbeat CPU 14 instructions: 90000002 cycles: 22511231 heartbeat IPC: 4 cumulative IPC: 3.998 (Simulation time: 02 hr 32 min 49 sec)
Heartbeat CPU 6 instructions: 90000006 cycles: 22511241 heartbeat IPC: 4 cumulative IPC: 3.998 (Simulation time: 02 hr 32 min 49 sec)
Heartbeat CPU 7 instructions: 90000003 cycles: 22511268 heartbeat IPC: 4 cumulative IPC: 3.998 (Simulation time: 02 hr 32 min 49 sec)
Heartbeat CPU 15 instructions: 90000003 cycles: 22511340 heartbeat IPC: 4 cumulative IPC: 3.998 (Simulation time: 02 hr 32 min 49 sec)
Heartbeat CPU 2 instructions: 90000006 cycles: 22512866 heartbeat IPC: 4 cumulative IPC: 3.998 (Simulation time: 02 hr 32 min 50 sec)
Heartbeat CPU 10 instructions: 90000006 cycles: 22513049 heartbeat IPC: 4 cumulative IPC: 3.998 (Simulation time: 02 hr 32 min 50 sec)
*** Reached end of trace: (2, "/home/harshraj/COALESCE-Hashed-Perceptron-Cache-Replacement-Policy/simulator/traces/ocean_8t/ocean2.champsimtrace")
*** Reached end of trace: (10, "/home/harshraj/COALESCE-Hashed-Perceptron-Cache-Replacement-Policy/simulator/traces/ocean_8t/ocean2.champsimtrace")
*** Reached end of trace: (13, "/home/harshraj/COALESCE-Hashed-Perceptron-Cache-Replacement-Policy/simulator/traces/ocean_8t/ocean5.champsimtrace")
*** Reached end of trace: (5, "/home/harshraj/COALESCE-Hashed-Perceptron-Cache-Replacement-Policy/simulator/traces/ocean_8t/ocean5.champsimtrace")
*** Reached end of trace: (4, "/home/harshraj/COALESCE-Hashed-Perceptron-Cache-Replacement-Policy/simulator/traces/ocean_8t/ocean4.champsimtrace")
*** Reached end of trace: (12, "/home/harshraj/COALESCE-Hashed-Perceptron-Cache-Replacement-Policy/simulator/traces/ocean_8t/ocean4.champsimtrace")
*** Reached end of trace: (14, "/home/harshraj/COALESCE-Hashed-Perceptron-Cache-Replacement-Policy/simulator/traces/ocean_8t/ocean6.champsimtrace")
*** Reached end of trace: (6, "/home/harshraj/COALESCE-Hashed-Perceptron-Cache-Replacement-Policy/simulator/traces/ocean_8t/ocean6.champsimtrace")
*** Reached end of trace: (11, "/home/harshraj/COALESCE-Hashed-Perceptron-Cache-Replacement-Policy/simulator/traces/ocean_8t/ocean3.champsimtrace")
*** Reached end of trace: (3, "/home/harshraj/COALESCE-Hashed-Perceptron-Cache-Replacement-Policy/simulator/traces/ocean_8t/ocean3.champsimtrace")
*** Reached end of trace: (7, "/home/harshraj/COALESCE-Hashed-Perceptron-Cache-Replacement-Policy/simulator/traces/ocean_8t/ocean7.champsimtrace")
*** Reached end of trace: (15, "/home/harshraj/COALESCE-Hashed-Perceptron-Cache-Replacement-Policy/simulator/traces/ocean_8t/ocean7.champsimtrace")
Heartbeat CPU 4 instructions: 100000006 cycles: 25010914 heartbeat IPC: 4 cumulative IPC: 3.998 (Simulation time: 02 hr 49 min 26 sec)
Heartbeat CPU 13 instructions: 100000009 cycles: 25011001 heartbeat IPC: 4 cumulative IPC: 3.998 (Simulation time: 02 hr 49 min 26 sec)
Heartbeat CPU 11 instructions: 100000004 cycles: 25011007 heartbeat IPC: 4 cumulative IPC: 3.998 (Simulation time: 02 hr 49 min 26 sec)
Heartbeat CPU 3 instructions: 100000004 cycles: 25011008 heartbeat IPC: 4 cumulative IPC: 3.998 (Simulation time: 02 hr 49 min 26 sec)
Heartbeat CPU 5 instructions: 100000005 cycles: 25011029 heartbeat IPC: 4 cumulative IPC: 3.998 (Simulation time: 02 hr 49 min 26 sec)
Heartbeat CPU 12 instructions: 100000006 cycles: 25011103 heartbeat IPC: 4 cumulative IPC: 3.998 (Simulation time: 02 hr 49 min 26 sec)
Heartbeat CPU 14 instructions: 100000002 cycles: 25011231 heartbeat IPC: 4 cumulative IPC: 3.998 (Simulation time: 02 hr 49 min 27 sec)
Heartbeat CPU 6 instructions: 100000006 cycles: 25011241 heartbeat IPC: 4 cumulative IPC: 3.998 (Simulation time: 02 hr 49 min 27 sec)
Heartbeat CPU 7 instructions: 100000003 cycles: 25011268 heartbeat IPC: 4 cumulative IPC: 3.998 (Simulation time: 02 hr 49 min 27 sec)
Heartbeat CPU 15 instructions: 100000003 cycles: 25011340 heartbeat IPC: 4 cumulative IPC: 3.998 (Simulation time: 02 hr 49 min 27 sec)
Heartbeat CPU 2 instructions: 100000006 cycles: 25012866 heartbeat IPC: 4 cumulative IPC: 3.998 (Simulation time: 02 hr 49 min 27 sec)
Heartbeat CPU 10 instructions: 100000006 cycles: 25013049 heartbeat IPC: 4 cumulative IPC: 3.998 (Simulation time: 02 hr 49 min 27 sec)
Heartbeat CPU 1 instructions: 60000005 cycles: 26503437 heartbeat IPC: 2.439 cumulative IPC: 2.264 (Simulation time: 03 hr 00 min 08 sec)
Heartbeat CPU 9 instructions: 60000013 cycles: 26507265 heartbeat IPC: 2.439 cumulative IPC: 2.264 (Simulation time: 03 hr 00 min 09 sec)
Heartbeat CPU 4 instructions: 110000006 cycles: 27510914 heartbeat IPC: 4 cumulative IPC: 3.998 (Simulation time: 03 hr 07 min 38 sec)
Heartbeat CPU 13 instructions: 110000009 cycles: 27511001 heartbeat IPC: 4 cumulative IPC: 3.998 (Simulation time: 03 hr 07 min 38 sec)
Heartbeat CPU 11 instructions: 110000004 cycles: 27511007 heartbeat IPC: 4 cumulative IPC: 3.998 (Simulation time: 03 hr 07 min 38 sec)
Heartbeat CPU 3 instructions: 110000004 cycles: 27511008 heartbeat IPC: 4 cumulative IPC: 3.998 (Simulation time: 03 hr 07 min 38 sec)
Heartbeat CPU 5 instructions: 110000005 cycles: 27511029 heartbeat IPC: 4 cumulative IPC: 3.998 (Simulation time: 03 hr 07 min 38 sec)
Heartbeat CPU 12 instructions: 110000006 cycles: 27511103 heartbeat IPC: 4 cumulative IPC: 3.998 (Simulation time: 03 hr 07 min 38 sec)
Heartbeat CPU 14 instructions: 110000002 cycles: 27511231 heartbeat IPC: 4 cumulative IPC: 3.998 (Simulation time: 03 hr 07 min 38 sec)
Heartbeat CPU 6 instructions: 110000006 cycles: 27511241 heartbeat IPC: 4 cumulative IPC: 3.998 (Simulation time: 03 hr 07 min 38 sec)
Heartbeat CPU 7 instructions: 110000003 cycles: 27511268 heartbeat IPC: 4 cumulative IPC: 3.998 (Simulation time: 03 hr 07 min 38 sec)
Heartbeat CPU 15 instructions: 110000003 cycles: 27511340 heartbeat IPC: 4 cumulative IPC: 3.998 (Simulation time: 03 hr 07 min 38 sec)
Heartbeat CPU 2 instructions: 110000006 cycles: 27512866 heartbeat IPC: 4 cumulative IPC: 3.998 (Simulation time: 03 hr 07 min 39 sec)
Heartbeat CPU 10 instructions: 110000006 cycles: 27513049 heartbeat IPC: 4 cumulative IPC: 3.998 (Simulation time: 03 hr 07 min 39 sec)
Heartbeat CPU 4 instructions: 120000006 cycles: 30010914 heartbeat IPC: 4 cumulative IPC: 3.999 (Simulation time: 03 hr 25 min 09 sec)
Heartbeat CPU 13 instructions: 120000009 cycles: 30011001 heartbeat IPC: 4 cumulative IPC: 3.999 (Simulation time: 03 hr 25 min 09 sec)
Heartbeat CPU 11 instructions: 120000004 cycles: 30011007 heartbeat IPC: 4 cumulative IPC: 3.999 (Simulation time: 03 hr 25 min 09 sec)
Heartbeat CPU 3 instructions: 120000004 cycles: 30011008 heartbeat IPC: 4 cumulative IPC: 3.999 (Simulation time: 03 hr 25 min 09 sec)
Heartbeat CPU 5 instructions: 120000005 cycles: 30011029 heartbeat IPC: 4 cumulative IPC: 3.999 (Simulation time: 03 hr 25 min 09 sec)
Heartbeat CPU 12 instructions: 120000006 cycles: 30011103 heartbeat IPC: 4 cumulative IPC: 3.999 (Simulation time: 03 hr 25 min 09 sec)
Heartbeat CPU 14 instructions: 120000002 cycles: 30011231 heartbeat IPC: 4 cumulative IPC: 3.999 (Simulation time: 03 hr 25 min 09 sec)
Heartbeat CPU 6 instructions: 120000006 cycles: 30011241 heartbeat IPC: 4 cumulative IPC: 3.999 (Simulation time: 03 hr 25 min 09 sec)
Heartbeat CPU 7 instructions: 120000003 cycles: 30011268 heartbeat IPC: 4 cumulative IPC: 3.998 (Simulation time: 03 hr 25 min 09 sec)
Heartbeat CPU 15 instructions: 120000003 cycles: 30011340 heartbeat IPC: 4 cumulative IPC: 3.998 (Simulation time: 03 hr 25 min 09 sec)
Heartbeat CPU 2 instructions: 120000006 cycles: 30012866 heartbeat IPC: 4 cumulative IPC: 3.998 (Simulation time: 03 hr 25 min 10 sec)
Heartbeat CPU 10 instructions: 120000006 cycles: 30013049 heartbeat IPC: 4 cumulative IPC: 3.998 (Simulation time: 03 hr 25 min 10 sec)
Heartbeat CPU 1 instructions: 70000005 cycles: 30672718 heartbeat IPC: 2.398 cumulative IPC: 2.282 (Simulation time: 03 hr 30 min 17 sec)
Heartbeat CPU 9 instructions: 70000013 cycles: 30672719 heartbeat IPC: 2.401 cumulative IPC: 2.282 (Simulation time: 03 hr 30 min 17 sec)
Heartbeat CPU 4 instructions: 130000006 cycles: 32510914 heartbeat IPC: 4 cumulative IPC: 3.999 (Simulation time: 03 hr 43 min 37 sec)
Heartbeat CPU 13 instructions: 130000009 cycles: 32511001 heartbeat IPC: 4 cumulative IPC: 3.999 (Simulation time: 03 hr 43 min 37 sec)
Heartbeat CPU 11 instructions: 130000004 cycles: 32511007 heartbeat IPC: 4 cumulative IPC: 3.999 (Simulation time: 03 hr 43 min 37 sec)
Heartbeat CPU 3 instructions: 130000004 cycles: 32511008 heartbeat IPC: 4 cumulative IPC: 3.999 (Simulation time: 03 hr 43 min 37 sec)
Heartbeat CPU 5 instructions: 130000005 cycles: 32511029 heartbeat IPC: 4 cumulative IPC: 3.999 (Simulation time: 03 hr 43 min 37 sec)
Heartbeat CPU 12 instructions: 130000006 cycles: 32511103 heartbeat IPC: 4 cumulative IPC: 3.999 (Simulation time: 03 hr 43 min 37 sec)
Heartbeat CPU 14 instructions: 130000002 cycles: 32511231 heartbeat IPC: 4 cumulative IPC: 3.999 (Simulation time: 03 hr 43 min 37 sec)
Heartbeat CPU 6 instructions: 130000006 cycles: 32511241 heartbeat IPC: 4 cumulative IPC: 3.999 (Simulation time: 03 hr 43 min 37 sec)
Heartbeat CPU 7 instructions: 130000003 cycles: 32511268 heartbeat IPC: 4 cumulative IPC: 3.999 (Simulation time: 03 hr 43 min 37 sec)
Heartbeat CPU 15 instructions: 130000003 cycles: 32511340 heartbeat IPC: 4 cumulative IPC: 3.999 (Simulation time: 03 hr 43 min 37 sec)
Heartbeat CPU 2 instructions: 130000006 cycles: 32512866 heartbeat IPC: 4 cumulative IPC: 3.998 (Simulation time: 03 hr 43 min 38 sec)
Heartbeat CPU 10 instructions: 130000006 cycles: 32513049 heartbeat IPC: 4 cumulative IPC: 3.998 (Simulation time: 03 hr 43 min 38 sec)
*** Reached end of trace: (2, "/home/harshraj/COALESCE-Hashed-Perceptron-Cache-Replacement-Policy/simulator/traces/ocean_8t/ocean2.champsimtrace")
*** Reached end of trace: (10, "/home/harshraj/COALESCE-Hashed-Perceptron-Cache-Replacement-Policy/simulator/traces/ocean_8t/ocean2.champsimtrace")
*** Reached end of trace: (13, "/home/harshraj/COALESCE-Hashed-Perceptron-Cache-Replacement-Policy/simulator/traces/ocean_8t/ocean5.champsimtrace")
*** Reached end of trace: (5, "/home/harshraj/COALESCE-Hashed-Perceptron-Cache-Replacement-Policy/simulator/traces/ocean_8t/ocean5.champsimtrace")
*** Reached end of trace: (4, "/home/harshraj/COALESCE-Hashed-Perceptron-Cache-Replacement-Policy/simulator/traces/ocean_8t/ocean4.champsimtrace")
*** Reached end of trace: (12, "/home/harshraj/COALESCE-Hashed-Perceptron-Cache-Replacement-Policy/simulator/traces/ocean_8t/ocean4.champsimtrace")
*** Reached end of trace: (14, "/home/harshraj/COALESCE-Hashed-Perceptron-Cache-Replacement-Policy/simulator/traces/ocean_8t/ocean6.champsimtrace")
*** Reached end of trace: (6, "/home/harshraj/COALESCE-Hashed-Perceptron-Cache-Replacement-Policy/simulator/traces/ocean_8t/ocean6.champsimtrace")
*** Reached end of trace: (11, "/home/harshraj/COALESCE-Hashed-Perceptron-Cache-Replacement-Policy/simulator/traces/ocean_8t/ocean3.champsimtrace")
*** Reached end of trace: (3, "/home/harshraj/COALESCE-Hashed-Perceptron-Cache-Replacement-Policy/simulator/traces/ocean_8t/ocean3.champsimtrace")
*** Reached end of trace: (7, "/home/harshraj/COALESCE-Hashed-Perceptron-Cache-Replacement-Policy/simulator/traces/ocean_8t/ocean7.champsimtrace")
*** Reached end of trace: (15, "/home/harshraj/COALESCE-Hashed-Perceptron-Cache-Replacement-Policy/simulator/traces/ocean_8t/ocean7.champsimtrace")
Heartbeat CPU 4 instructions: 140000006 cycles: 35010914 heartbeat IPC: 4 cumulative IPC: 3.999 (Simulation time: 04 hr 00 min 37 sec)
Heartbeat CPU 13 instructions: 140000009 cycles: 35011001 heartbeat IPC: 4 cumulative IPC: 3.999 (Simulation time: 04 hr 00 min 37 sec)
Heartbeat CPU 11 instructions: 140000004 cycles: 35011007 heartbeat IPC: 4 cumulative IPC: 3.999 (Simulation time: 04 hr 00 min 37 sec)
Heartbeat CPU 3 instructions: 140000004 cycles: 35011008 heartbeat IPC: 4 cumulative IPC: 3.999 (Simulation time: 04 hr 00 min 37 sec)
Heartbeat CPU 5 instructions: 140000005 cycles: 35011029 heartbeat IPC: 4 cumulative IPC: 3.999 (Simulation time: 04 hr 00 min 37 sec)
Heartbeat CPU 12 instructions: 140000006 cycles: 35011103 heartbeat IPC: 4 cumulative IPC: 3.999 (Simulation time: 04 hr 00 min 37 sec)
Heartbeat CPU 14 instructions: 140000002 cycles: 35011231 heartbeat IPC: 4 cumulative IPC: 3.999 (Simulation time: 04 hr 00 min 37 sec)
Heartbeat CPU 6 instructions: 140000006 cycles: 35011241 heartbeat IPC: 4 cumulative IPC: 3.999 (Simulation time: 04 hr 00 min 37 sec)
Heartbeat CPU 7 instructions: 140000003 cycles: 35011268 heartbeat IPC: 4 cumulative IPC: 3.999 (Simulation time: 04 hr 00 min 37 sec)
Heartbeat CPU 15 instructions: 140000003 cycles: 35011340 heartbeat IPC: 4 cumulative IPC: 3.999 (Simulation time: 04 hr 00 min 37 sec)
Heartbeat CPU 2 instructions: 140000006 cycles: 35012866 heartbeat IPC: 4 cumulative IPC: 3.999 (Simulation time: 04 hr 00 min 38 sec)
Heartbeat CPU 10 instructions: 140000006 cycles: 35013049 heartbeat IPC: 4 cumulative IPC: 3.999 (Simulation time: 04 hr 00 min 38 sec)
Heartbeat CPU 1 instructions: 80000005 cycles: 36226090 heartbeat IPC: 1.801 cumulative IPC: 2.208 (Simulation time: 04 hr 09 min 28 sec)
Heartbeat CPU 9 instructions: 80000013 cycles: 36226094 heartbeat IPC: 1.801 cumulative IPC: 2.208 (Simulation time: 04 hr 09 min 28 sec)
Heartbeat CPU 4 instructions: 150000006 cycles: 37510914 heartbeat IPC: 4 cumulative IPC: 3.999 (Simulation time: 04 hr 19 min 15 sec)
Heartbeat CPU 13 instructions: 150000009 cycles: 37511001 heartbeat IPC: 4 cumulative IPC: 3.999 (Simulation time: 04 hr 19 min 15 sec)
Heartbeat CPU 11 instructions: 150000004 cycles: 37511007 heartbeat IPC: 4 cumulative IPC: 3.999 (Simulation time: 04 hr 19 min 15 sec)
Heartbeat CPU 3 instructions: 150000004 cycles: 37511008 heartbeat IPC: 4 cumulative IPC: 3.999 (Simulation time: 04 hr 19 min 15 sec)
Heartbeat CPU 5 instructions: 150000005 cycles: 37511029 heartbeat IPC: 4 cumulative IPC: 3.999 (Simulation time: 04 hr 19 min 15 sec)
Heartbeat CPU 12 instructions: 150000006 cycles: 37511103 heartbeat IPC: 4 cumulative IPC: 3.999 (Simulation time: 04 hr 19 min 15 sec)
Heartbeat CPU 14 instructions: 150000002 cycles: 37511231 heartbeat IPC: 4 cumulative IPC: 3.999 (Simulation time: 04 hr 19 min 15 sec)
Heartbeat CPU 6 instructions: 150000006 cycles: 37511241 heartbeat IPC: 4 cumulative IPC: 3.999 (Simulation time: 04 hr 19 min 15 sec)
Heartbeat CPU 7 instructions: 150000003 cycles: 37511268 heartbeat IPC: 4 cumulative IPC: 3.999 (Simulation time: 04 hr 19 min 15 sec)
Heartbeat CPU 15 instructions: 150000003 cycles: 37511340 heartbeat IPC: 4 cumulative IPC: 3.999 (Simulation time: 04 hr 19 min 15 sec)
Heartbeat CPU 2 instructions: 150000006 cycles: 37512866 heartbeat IPC: 4 cumulative IPC: 3.999 (Simulation time: 04 hr 19 min 16 sec)
Heartbeat CPU 10 instructions: 150000006 cycles: 37513049 heartbeat IPC: 4 cumulative IPC: 3.999 (Simulation time: 04 hr 19 min 16 sec)
Heartbeat CPU 1 instructions: 90000008 cycles: 39647121 heartbeat IPC: 2.923 cumulative IPC: 2.27 (Simulation time: 04 hr 34 min 09 sec)
Heartbeat CPU 9 instructions: 90000015 cycles: 39647177 heartbeat IPC: 2.923 cumulative IPC: 2.27 (Simulation time: 04 hr 34 min 09 sec)
Heartbeat CPU 4 instructions: 160000006 cycles: 40010914 heartbeat IPC: 4 cumulative IPC: 3.999 (Simulation time: 04 hr 36 min 55 sec)
Heartbeat CPU 13 instructions: 160000009 cycles: 40011001 heartbeat IPC: 4 cumulative IPC: 3.999 (Simulation time: 04 hr 36 min 55 sec)
Heartbeat CPU 11 instructions: 160000004 cycles: 40011007 heartbeat IPC: 4 cumulative IPC: 3.999 (Simulation time: 04 hr 36 min 55 sec)
Heartbeat CPU 3 instructions: 160000004 cycles: 40011008 heartbeat IPC: 4 cumulative IPC: 3.999 (Simulation time: 04 hr 36 min 55 sec)
Heartbeat CPU 5 instructions: 160000005 cycles: 40011029 heartbeat IPC: 4 cumulative IPC: 3.999 (Simulation time: 04 hr 36 min 55 sec)
Heartbeat CPU 12 instructions: 160000006 cycles: 40011103 heartbeat IPC: 4 cumulative IPC: 3.999 (Simulation time: 04 hr 36 min 55 sec)
Heartbeat CPU 14 instructions: 160000002 cycles: 40011231 heartbeat IPC: 4 cumulative IPC: 3.999 (Simulation time: 04 hr 36 min 55 sec)
Heartbeat CPU 6 instructions: 160000006 cycles: 40011241 heartbeat IPC: 4 cumulative IPC: 3.999 (Simulation time: 04 hr 36 min 55 sec)
Heartbeat CPU 7 instructions: 160000003 cycles: 40011268 heartbeat IPC: 4 cumulative IPC: 3.999 (Simulation time: 04 hr 36 min 55 sec)
Heartbeat CPU 15 instructions: 160000003 cycles: 40011340 heartbeat IPC: 4 cumulative IPC: 3.999 (Simulation time: 04 hr 36 min 55 sec)
Heartbeat CPU 2 instructions: 160000006 cycles: 40012866 heartbeat IPC: 4 cumulative IPC: 3.999 (Simulation time: 04 hr 36 min 56 sec)
Heartbeat CPU 10 instructions: 160000006 cycles: 40013049 heartbeat IPC: 4 cumulative IPC: 3.999 (Simulation time: 04 hr 36 min 56 sec)
*** Reached end of trace: (9, "/home/harshraj/COALESCE-Hashed-Perceptron-Cache-Replacement-Policy/simulator/traces/ocean_8t/ocean1.champsimtrace")
*** Reached end of trace: (1, "/home/harshraj/COALESCE-Hashed-Perceptron-Cache-Replacement-Policy/simulator/traces/ocean_8t/ocean1.champsimtrace")
Heartbeat CPU 8 instructions: 20000001 cycles: 41748612 heartbeat IPC: 0.4733 cumulative IPC: 0.4791 (Simulation time: 04 hr 49 min 51 sec)
Heartbeat CPU 0 instructions: 20000001 cycles: 41749249 heartbeat IPC: 0.4733 cumulative IPC: 0.4791 (Simulation time: 04 hr 49 min 51 sec)
Heartbeat CPU 4 instructions: 170000006 cycles: 42510914 heartbeat IPC: 4 cumulative IPC: 3.999 (Simulation time: 04 hr 54 min 27 sec)
Heartbeat CPU 13 instructions: 170000009 cycles: 42511001 heartbeat IPC: 4 cumulative IPC: 3.999 (Simulation time: 04 hr 54 min 27 sec)
Heartbeat CPU 11 instructions: 170000004 cycles: 42511007 heartbeat IPC: 4 cumulative IPC: 3.999 (Simulation time: 04 hr 54 min 27 sec)
Heartbeat CPU 3 instructions: 170000004 cycles: 42511008 heartbeat IPC: 4 cumulative IPC: 3.999 (Simulation time: 04 hr 54 min 27 sec)
Heartbeat CPU 5 instructions: 170000005 cycles: 42511029 heartbeat IPC: 4 cumulative IPC: 3.999 (Simulation time: 04 hr 54 min 27 sec)
Heartbeat CPU 12 instructions: 170000006 cycles: 42511103 heartbeat IPC: 4 cumulative IPC: 3.999 (Simulation time: 04 hr 54 min 27 sec)
Heartbeat CPU 14 instructions: 170000002 cycles: 42511231 heartbeat IPC: 4 cumulative IPC: 3.999 (Simulation time: 04 hr 54 min 27 sec)
Heartbeat CPU 6 instructions: 170000006 cycles: 42511241 heartbeat IPC: 4 cumulative IPC: 3.999 (Simulation time: 04 hr 54 min 27 sec)
Heartbeat CPU 7 instructions: 170000003 cycles: 42511268 heartbeat IPC: 4 cumulative IPC: 3.999 (Simulation time: 04 hr 54 min 27 sec)
Heartbeat CPU 15 instructions: 170000003 cycles: 42511340 heartbeat IPC: 4 cumulative IPC: 3.999 (Simulation time: 04 hr 54 min 27 sec)
Heartbeat CPU 2 instructions: 170000006 cycles: 42512866 heartbeat IPC: 4 cumulative IPC: 3.999 (Simulation time: 04 hr 54 min 28 sec)
Heartbeat CPU 10 instructions: 170000006 cycles: 42513049 heartbeat IPC: 4 cumulative IPC: 3.999 (Simulation time: 04 hr 54 min 28 sec)
Heartbeat CPU 1 instructions: 100000009 cycles: 43732776 heartbeat IPC: 2.448 cumulative IPC: 2.287 (Simulation time: 05 hr 03 min 18 sec)
Heartbeat CPU 9 instructions: 100000017 cycles: 43736225 heartbeat IPC: 2.446 cumulative IPC: 2.286 (Simulation time: 05 hr 03 min 20 sec)
Heartbeat CPU 4 instructions: 180000006 cycles: 45010914 heartbeat IPC: 4 cumulative IPC: 3.999 (Simulation time: 05 hr 12 min 57 sec)
Heartbeat CPU 13 instructions: 180000009 cycles: 45011001 heartbeat IPC: 4 cumulative IPC: 3.999 (Simulation time: 05 hr 12 min 58 sec)
Heartbeat CPU 11 instructions: 180000004 cycles: 45011007 heartbeat IPC: 4 cumulative IPC: 3.999 (Simulation time: 05 hr 12 min 58 sec)
Heartbeat CPU 3 instructions: 180000004 cycles: 45011008 heartbeat IPC: 4 cumulative IPC: 3.999 (Simulation time: 05 hr 12 min 58 sec)
Heartbeat CPU 5 instructions: 180000005 cycles: 45011029 heartbeat IPC: 4 cumulative IPC: 3.999 (Simulation time: 05 hr 12 min 58 sec)
Heartbeat CPU 12 instructions: 180000006 cycles: 45011103 heartbeat IPC: 4 cumulative IPC: 3.999 (Simulation time: 05 hr 12 min 58 sec)
Heartbeat CPU 14 instructions: 180000002 cycles: 45011231 heartbeat IPC: 4 cumulative IPC: 3.999 (Simulation time: 05 hr 12 min 58 sec)
Heartbeat CPU 6 instructions: 180000006 cycles: 45011241 heartbeat IPC: 4 cumulative IPC: 3.999 (Simulation time: 05 hr 12 min 58 sec)
Heartbeat CPU 7 instructions: 180000003 cycles: 45011268 heartbeat IPC: 4 cumulative IPC: 3.999 (Simulation time: 05 hr 12 min 58 sec)
Heartbeat CPU 15 instructions: 180000003 cycles: 45011340 heartbeat IPC: 4 cumulative IPC: 3.999 (Simulation time: 05 hr 12 min 58 sec)
Heartbeat CPU 2 instructions: 180000006 cycles: 45012866 heartbeat IPC: 4 cumulative IPC: 3.999 (Simulation time: 05 hr 12 min 58 sec)
Heartbeat CPU 10 instructions: 180000006 cycles: 45013049 heartbeat IPC: 4 cumulative IPC: 3.999 (Simulation time: 05 hr 12 min 58 sec)
*** Reached end of trace: (2, "/home/harshraj/COALESCE-Hashed-Perceptron-Cache-Replacement-Policy/simulator/traces/ocean_8t/ocean2.champsimtrace")
*** Reached end of trace: (10, "/home/harshraj/COALESCE-Hashed-Perceptron-Cache-Replacement-Policy/simulator/traces/ocean_8t/ocean2.champsimtrace")
*** Reached end of trace: (13, "/home/harshraj/COALESCE-Hashed-Perceptron-Cache-Replacement-Policy/simulator/traces/ocean_8t/ocean5.champsimtrace")
*** Reached end of trace: (5, "/home/harshraj/COALESCE-Hashed-Perceptron-Cache-Replacement-Policy/simulator/traces/ocean_8t/ocean5.champsimtrace")
*** Reached end of trace: (4, "/home/harshraj/COALESCE-Hashed-Perceptron-Cache-Replacement-Policy/simulator/traces/ocean_8t/ocean4.champsimtrace")
*** Reached end of trace: (12, "/home/harshraj/COALESCE-Hashed-Perceptron-Cache-Replacement-Policy/simulator/traces/ocean_8t/ocean4.champsimtrace")
*** Reached end of trace: (14, "/home/harshraj/COALESCE-Hashed-Perceptron-Cache-Replacement-Policy/simulator/traces/ocean_8t/ocean6.champsimtrace")
*** Reached end of trace: (6, "/home/harshraj/COALESCE-Hashed-Perceptron-Cache-Replacement-Policy/simulator/traces/ocean_8t/ocean6.champsimtrace")
*** Reached end of trace: (11, "/home/harshraj/COALESCE-Hashed-Perceptron-Cache-Replacement-Policy/simulator/traces/ocean_8t/ocean3.champsimtrace")
*** Reached end of trace: (3, "/home/harshraj/COALESCE-Hashed-Perceptron-Cache-Replacement-Policy/simulator/traces/ocean_8t/ocean3.champsimtrace")
*** Reached end of trace: (7, "/home/harshraj/COALESCE-Hashed-Perceptron-Cache-Replacement-Policy/simulator/traces/ocean_8t/ocean7.champsimtrace")
*** Reached end of trace: (15, "/home/harshraj/COALESCE-Hashed-Perceptron-Cache-Replacement-Policy/simulator/traces/ocean_8t/ocean7.champsimtrace")
Heartbeat CPU 4 instructions: 190000006 cycles: 47510914 heartbeat IPC: 4 cumulative IPC: 3.999 (Simulation time: 05 hr 30 min 49 sec)
Heartbeat CPU 13 instructions: 190000009 cycles: 47511001 heartbeat IPC: 4 cumulative IPC: 3.999 (Simulation time: 05 hr 30 min 49 sec)
Heartbeat CPU 11 instructions: 190000004 cycles: 47511007 heartbeat IPC: 4 cumulative IPC: 3.999 (Simulation time: 05 hr 30 min 49 sec)
Heartbeat CPU 3 instructions: 190000004 cycles: 47511008 heartbeat IPC: 4 cumulative IPC: 3.999 (Simulation time: 05 hr 30 min 49 sec)
Heartbeat CPU 5 instructions: 190000005 cycles: 47511029 heartbeat IPC: 4 cumulative IPC: 3.999 (Simulation time: 05 hr 30 min 49 sec)
Heartbeat CPU 12 instructions: 190000006 cycles: 47511103 heartbeat IPC: 4 cumulative IPC: 3.999 (Simulation time: 05 hr 30 min 49 sec)
Heartbeat CPU 14 instructions: 190000002 cycles: 47511231 heartbeat IPC: 4 cumulative IPC: 3.999 (Simulation time: 05 hr 30 min 49 sec)
Heartbeat CPU 6 instructions: 190000006 cycles: 47511241 heartbeat IPC: 4 cumulative IPC: 3.999 (Simulation time: 05 hr 30 min 49 sec)
Heartbeat CPU 7 instructions: 190000003 cycles: 47511268 heartbeat IPC: 4 cumulative IPC: 3.999 (Simulation time: 05 hr 30 min 49 sec)
Heartbeat CPU 15 instructions: 190000003 cycles: 47511340 heartbeat IPC: 4 cumulative IPC: 3.999 (Simulation time: 05 hr 30 min 49 sec)
Heartbeat CPU 2 instructions: 190000006 cycles: 47512866 heartbeat IPC: 4 cumulative IPC: 3.999 (Simulation time: 05 hr 30 min 50 sec)
Heartbeat CPU 10 instructions: 190000006 cycles: 47513049 heartbeat IPC: 4 cumulative IPC: 3.999 (Simulation time: 05 hr 30 min 50 sec)
Heartbeat CPU 1 instructions: 110000010 cycles: 47835092 heartbeat IPC: 2.438 cumulative IPC: 2.3 (Simulation time: 05 hr 33 min 24 sec)
Heartbeat CPU 9 instructions: 110000018 cycles: 47835095 heartbeat IPC: 2.44 cumulative IPC: 2.3 (Simulation time: 05 hr 33 min 24 sec)
Heartbeat CPU 4 instructions: 200000006 cycles: 50010914 heartbeat IPC: 4 cumulative IPC: 3.999 (Simulation time: 05 hr 49 min 45 sec)
Heartbeat CPU 13 instructions: 200000009 cycles: 50011001 heartbeat IPC: 4 cumulative IPC: 3.999 (Simulation time: 05 hr 49 min 45 sec)
Heartbeat CPU 11 instructions: 200000004 cycles: 50011007 heartbeat IPC: 4 cumulative IPC: 3.999 (Simulation time: 05 hr 49 min 45 sec)
Heartbeat CPU 3 instructions: 200000004 cycles: 50011008 heartbeat IPC: 4 cumulative IPC: 3.999 (Simulation time: 05 hr 49 min 45 sec)
Heartbeat CPU 5 instructions: 200000005 cycles: 50011029 heartbeat IPC: 4 cumulative IPC: 3.999 (Simulation time: 05 hr 49 min 45 sec)
Heartbeat CPU 12 instructions: 200000006 cycles: 50011103 heartbeat IPC: 4 cumulative IPC: 3.999 (Simulation time: 05 hr 49 min 45 sec)
Heartbeat CPU 14 instructions: 200000002 cycles: 50011231 heartbeat IPC: 4 cumulative IPC: 3.999 (Simulation time: 05 hr 49 min 45 sec)
Heartbeat CPU 6 instructions: 200000006 cycles: 50011241 heartbeat IPC: 4 cumulative IPC: 3.999 (Simulation time: 05 hr 49 min 45 sec)
Heartbeat CPU 7 instructions: 200000003 cycles: 50011268 heartbeat IPC: 4 cumulative IPC: 3.999 (Simulation time: 05 hr 49 min 45 sec)
Heartbeat CPU 15 instructions: 200000003 cycles: 50011340 heartbeat IPC: 4 cumulative IPC: 3.999 (Simulation time: 05 hr 49 min 45 sec)
Heartbeat CPU 2 instructions: 200000006 cycles: 50012866 heartbeat IPC: 4 cumulative IPC: 3.999 (Simulation time: 05 hr 49 min 45 sec)
Heartbeat CPU 10 instructions: 200000006 cycles: 50013049 heartbeat IPC: 4 cumulative IPC: 3.999 (Simulation time: 05 hr 49 min 45 sec)
Heartbeat CPU 4 instructions: 210000006 cycles: 52510914 heartbeat IPC: 4 cumulative IPC: 3.999 (Simulation time: 06 hr 07 min 16 sec)
Heartbeat CPU 13 instructions: 210000009 cycles: 52511001 heartbeat IPC: 4 cumulative IPC: 3.999 (Simulation time: 06 hr 07 min 16 sec)
Heartbeat CPU 11 instructions: 210000004 cycles: 52511007 heartbeat IPC: 4 cumulative IPC: 3.999 (Simulation time: 06 hr 07 min 16 sec)
Heartbeat CPU 3 instructions: 210000004 cycles: 52511008 heartbeat IPC: 4 cumulative IPC: 3.999 (Simulation time: 06 hr 07 min 16 sec)
Heartbeat CPU 5 instructions: 210000005 cycles: 52511029 heartbeat IPC: 4 cumulative IPC: 3.999 (Simulation time: 06 hr 07 min 16 sec)
Heartbeat CPU 12 instructions: 210000006 cycles: 52511103 heartbeat IPC: 4 cumulative IPC: 3.999 (Simulation time: 06 hr 07 min 16 sec)
Heartbeat CPU 14 instructions: 210000002 cycles: 52511231 heartbeat IPC: 4 cumulative IPC: 3.999 (Simulation time: 06 hr 07 min 16 sec)
Heartbeat CPU 6 instructions: 210000006 cycles: 52511241 heartbeat IPC: 4 cumulative IPC: 3.999 (Simulation time: 06 hr 07 min 16 sec)
Heartbeat CPU 7 instructions: 210000003 cycles: 52511268 heartbeat IPC: 4 cumulative IPC: 3.999 (Simulation time: 06 hr 07 min 16 sec)
Heartbeat CPU 15 instructions: 210000003 cycles: 52511340 heartbeat IPC: 4 cumulative IPC: 3.999 (Simulation time: 06 hr 07 min 16 sec)
Heartbeat CPU 2 instructions: 210000006 cycles: 52512866 heartbeat IPC: 4 cumulative IPC: 3.999 (Simulation time: 06 hr 07 min 17 sec)
Heartbeat CPU 10 instructions: 210000006 cycles: 52513049 heartbeat IPC: 4 cumulative IPC: 3.999 (Simulation time: 06 hr 07 min 17 sec)
Heartbeat CPU 1 instructions: 120000011 cycles: 52760634 heartbeat IPC: 2.03 cumulative IPC: 2.274 (Simulation time: 06 hr 09 min 11 sec)
Heartbeat CPU 9 instructions: 120000018 cycles: 52760645 heartbeat IPC: 2.03 cumulative IPC: 2.274 (Simulation time: 06 hr 09 min 11 sec)
Heartbeat CPU 4 instructions: 220000006 cycles: 55010914 heartbeat IPC: 4 cumulative IPC: 3.999 (Simulation time: 06 hr 25 min 40 sec)
Heartbeat CPU 13 instructions: 220000009 cycles: 55011001 heartbeat IPC: 4 cumulative IPC: 3.999 (Simulation time: 06 hr 25 min 40 sec)
Heartbeat CPU 11 instructions: 220000004 cycles: 55011007 heartbeat IPC: 4 cumulative IPC: 3.999 (Simulation time: 06 hr 25 min 40 sec)
Heartbeat CPU 3 instructions: 220000004 cycles: 55011008 heartbeat IPC: 4 cumulative IPC: 3.999 (Simulation time: 06 hr 25 min 40 sec)
Heartbeat CPU 5 instructions: 220000005 cycles: 55011029 heartbeat IPC: 4 cumulative IPC: 3.999 (Simulation time: 06 hr 25 min 40 sec)
Heartbeat CPU 12 instructions: 220000006 cycles: 55011103 heartbeat IPC: 4 cumulative IPC: 3.999 (Simulation time: 06 hr 25 min 40 sec)
Heartbeat CPU 14 instructions: 220000002 cycles: 55011231 heartbeat IPC: 4 cumulative IPC: 3.999 (Simulation time: 06 hr 25 min 40 sec)
Heartbeat CPU 6 instructions: 220000006 cycles: 55011241 heartbeat IPC: 4 cumulative IPC: 3.999 (Simulation time: 06 hr 25 min 40 sec)
Heartbeat CPU 7 instructions: 220000003 cycles: 55011268 heartbeat IPC: 4 cumulative IPC: 3.999 (Simulation time: 06 hr 25 min 40 sec)
Heartbeat CPU 15 instructions: 220000003 cycles: 55011340 heartbeat IPC: 4 cumulative IPC: 3.999 (Simulation time: 06 hr 25 min 40 sec)
Heartbeat CPU 2 instructions: 220000006 cycles: 55012866 heartbeat IPC: 4 cumulative IPC: 3.999 (Simulation time: 06 hr 25 min 41 sec)
Heartbeat CPU 10 instructions: 220000006 cycles: 55013049 heartbeat IPC: 4 cumulative IPC: 3.999 (Simulation time: 06 hr 25 min 41 sec)
*** Reached end of trace: (2, "/home/harshraj/COALESCE-Hashed-Perceptron-Cache-Replacement-Policy/simulator/traces/ocean_8t/ocean2.champsimtrace")
*** Reached end of trace: (10, "/home/harshraj/COALESCE-Hashed-Perceptron-Cache-Replacement-Policy/simulator/traces/ocean_8t/ocean2.champsimtrace")
*** Reached end of trace: (13, "/home/harshraj/COALESCE-Hashed-Perceptron-Cache-Replacement-Policy/simulator/traces/ocean_8t/ocean5.champsimtrace")
*** Reached end of trace: (5, "/home/harshraj/COALESCE-Hashed-Perceptron-Cache-Replacement-Policy/simulator/traces/ocean_8t/ocean5.champsimtrace")
*** Reached end of trace: (4, "/home/harshraj/COALESCE-Hashed-Perceptron-Cache-Replacement-Policy/simulator/traces/ocean_8t/ocean4.champsimtrace")
*** Reached end of trace: (12, "/home/harshraj/COALESCE-Hashed-Perceptron-Cache-Replacement-Policy/simulator/traces/ocean_8t/ocean4.champsimtrace")
*** Reached end of trace: (14, "/home/harshraj/COALESCE-Hashed-Perceptron-Cache-Replacement-Policy/simulator/traces/ocean_8t/ocean6.champsimtrace")
*** Reached end of trace: (6, "/home/harshraj/COALESCE-Hashed-Perceptron-Cache-Replacement-Policy/simulator/traces/ocean_8t/ocean6.champsimtrace")
*** Reached end of trace: (11, "/home/harshraj/COALESCE-Hashed-Perceptron-Cache-Replacement-Policy/simulator/traces/ocean_8t/ocean3.champsimtrace")
*** Reached end of trace: (3, "/home/harshraj/COALESCE-Hashed-Perceptron-Cache-Replacement-Policy/simulator/traces/ocean_8t/ocean3.champsimtrace")
*** Reached end of trace: (7, "/home/harshraj/COALESCE-Hashed-Perceptron-Cache-Replacement-Policy/simulator/traces/ocean_8t/ocean7.champsimtrace")
*** Reached end of trace: (15, "/home/harshraj/COALESCE-Hashed-Perceptron-Cache-Replacement-Policy/simulator/traces/ocean_8t/ocean7.champsimtrace")
Heartbeat CPU 1 instructions: 130000011 cycles: 57241219 heartbeat IPC: 2.232 cumulative IPC: 2.271 (Simulation time: 06 hr 41 min 59 sec)
Heartbeat CPU 9 instructions: 130000019 cycles: 57241219 heartbeat IPC: 2.232 cumulative IPC: 2.271 (Simulation time: 06 hr 41 min 59 sec)
Heartbeat CPU 4 instructions: 230000006 cycles: 57510914 heartbeat IPC: 4 cumulative IPC: 3.999 (Simulation time: 06 hr 44 min 08 sec)
Heartbeat CPU 13 instructions: 230000009 cycles: 57511001 heartbeat IPC: 4 cumulative IPC: 3.999 (Simulation time: 06 hr 44 min 08 sec)
Heartbeat CPU 11 instructions: 230000004 cycles: 57511007 heartbeat IPC: 4 cumulative IPC: 3.999 (Simulation time: 06 hr 44 min 08 sec)
Heartbeat CPU 3 instructions: 230000004 cycles: 57511008 heartbeat IPC: 4 cumulative IPC: 3.999 (Simulation time: 06 hr 44 min 08 sec)
Heartbeat CPU 5 instructions: 230000005 cycles: 57511029 heartbeat IPC: 4 cumulative IPC: 3.999 (Simulation time: 06 hr 44 min 08 sec)
Heartbeat CPU 12 instructions: 230000006 cycles: 57511103 heartbeat IPC: 4 cumulative IPC: 3.999 (Simulation time: 06 hr 44 min 08 sec)
Heartbeat CPU 14 instructions: 230000002 cycles: 57511231 heartbeat IPC: 4 cumulative IPC: 3.999 (Simulation time: 06 hr 44 min 08 sec)
Heartbeat CPU 6 instructions: 230000006 cycles: 57511241 heartbeat IPC: 4 cumulative IPC: 3.999 (Simulation time: 06 hr 44 min 08 sec)
Heartbeat CPU 7 instructions: 230000003 cycles: 57511268 heartbeat IPC: 4 cumulative IPC: 3.999 (Simulation time: 06 hr 44 min 09 sec)
Heartbeat CPU 15 instructions: 230000003 cycles: 57511340 heartbeat IPC: 4 cumulative IPC: 3.999 (Simulation time: 06 hr 44 min 09 sec)
Heartbeat CPU 2 instructions: 230000006 cycles: 57512866 heartbeat IPC: 4 cumulative IPC: 3.999 (Simulation time: 06 hr 44 min 09 sec)
Heartbeat CPU 10 instructions: 230000006 cycles: 57513049 heartbeat IPC: 4 cumulative IPC: 3.999 (Simulation time: 06 hr 44 min 09 sec)
*** Reached end of trace: (9, "/home/harshraj/COALESCE-Hashed-Perceptron-Cache-Replacement-Policy/simulator/traces/ocean_8t/ocean1.champsimtrace")
*** Reached end of trace: (1, "/home/harshraj/COALESCE-Hashed-Perceptron-Cache-Replacement-Policy/simulator/traces/ocean_8t/ocean1.champsimtrace")
Heartbeat CPU 4 instructions: 240000006 cycles: 60010914 heartbeat IPC: 4 cumulative IPC: 3.999 (Simulation time: 07 hr 02 min 19 sec)
Heartbeat CPU 13 instructions: 240000009 cycles: 60011001 heartbeat IPC: 4 cumulative IPC: 3.999 (Simulation time: 07 hr 02 min 19 sec)
Heartbeat CPU 11 instructions: 240000004 cycles: 60011007 heartbeat IPC: 4 cumulative IPC: 3.999 (Simulation time: 07 hr 02 min 19 sec)
Heartbeat CPU 3 instructions: 240000004 cycles: 60011008 heartbeat IPC: 4 cumulative IPC: 3.999 (Simulation time: 07 hr 02 min 19 sec)
Heartbeat CPU 5 instructions: 240000005 cycles: 60011029 heartbeat IPC: 4 cumulative IPC: 3.999 (Simulation time: 07 hr 02 min 19 sec)
Heartbeat CPU 12 instructions: 240000006 cycles: 60011103 heartbeat IPC: 4 cumulative IPC: 3.999 (Simulation time: 07 hr 02 min 19 sec)
Heartbeat CPU 14 instructions: 240000002 cycles: 60011231 heartbeat IPC: 4 cumulative IPC: 3.999 (Simulation time: 07 hr 02 min 19 sec)
Heartbeat CPU 6 instructions: 240000006 cycles: 60011241 heartbeat IPC: 4 cumulative IPC: 3.999 (Simulation time: 07 hr 02 min 19 sec)
Heartbeat CPU 7 instructions: 240000003 cycles: 60011268 heartbeat IPC: 4 cumulative IPC: 3.999 (Simulation time: 07 hr 02 min 19 sec)
Heartbeat CPU 15 instructions: 240000003 cycles: 60011340 heartbeat IPC: 4 cumulative IPC: 3.999 (Simulation time: 07 hr 02 min 19 sec)
Heartbeat CPU 2 instructions: 240000006 cycles: 60012866 heartbeat IPC: 4 cumulative IPC: 3.999 (Simulation time: 07 hr 02 min 20 sec)
Heartbeat CPU 10 instructions: 240000006 cycles: 60013049 heartbeat IPC: 4 cumulative IPC: 3.999 (Simulation time: 07 hr 02 min 20 sec)
Heartbeat CPU 1 instructions: 140000011 cycles: 60969050 heartbeat IPC: 2.683 cumulative IPC: 2.296 (Simulation time: 07 hr 09 min 33 sec)
Heartbeat CPU 9 instructions: 140000019 cycles: 60969151 heartbeat IPC: 2.682 cumulative IPC: 2.296 (Simulation time: 07 hr 09 min 33 sec)
Heartbeat CPU 8 instructions: 30000005 cycles: 61809745 heartbeat IPC: 0.4985 cumulative IPC: 0.4854 (Simulation time: 07 hr 15 min 50 sec)
Heartbeat CPU 0 instructions: 30000005 cycles: 61820111 heartbeat IPC: 0.4982 cumulative IPC: 0.4853 (Simulation time: 07 hr 15 min 55 sec)
Heartbeat CPU 4 instructions: 250000006 cycles: 62510914 heartbeat IPC: 4 cumulative IPC: 3.999 (Simulation time: 07 hr 21 min 17 sec)
Heartbeat CPU 13 instructions: 250000009 cycles: 62511001 heartbeat IPC: 4 cumulative IPC: 3.999 (Simulation time: 07 hr 21 min 17 sec)
Heartbeat CPU 11 instructions: 250000004 cycles: 62511007 heartbeat IPC: 4 cumulative IPC: 3.999 (Simulation time: 07 hr 21 min 17 sec)
Heartbeat CPU 3 instructions: 250000004 cycles: 62511008 heartbeat IPC: 4 cumulative IPC: 3.999 (Simulation time: 07 hr 21 min 17 sec)
Heartbeat CPU 5 instructions: 250000005 cycles: 62511029 heartbeat IPC: 4 cumulative IPC: 3.999 (Simulation time: 07 hr 21 min 17 sec)
Heartbeat CPU 12 instructions: 250000006 cycles: 62511103 heartbeat IPC: 4 cumulative IPC: 3.999 (Simulation time: 07 hr 21 min 17 sec)
Heartbeat CPU 14 instructions: 250000002 cycles: 62511231 heartbeat IPC: 4 cumulative IPC: 3.999 (Simulation time: 07 hr 21 min 17 sec)
Heartbeat CPU 6 instructions: 250000006 cycles: 62511241 heartbeat IPC: 4 cumulative IPC: 3.999 (Simulation time: 07 hr 21 min 17 sec)
Heartbeat CPU 7 instructions: 250000003 cycles: 62511268 heartbeat IPC: 4 cumulative IPC: 3.999 (Simulation time: 07 hr 21 min 17 sec)
Heartbeat CPU 15 instructions: 250000003 cycles: 62511340 heartbeat IPC: 4 cumulative IPC: 3.999 (Simulation time: 07 hr 21 min 17 sec)
Heartbeat CPU 2 instructions: 250000006 cycles: 62512866 heartbeat IPC: 4 cumulative IPC: 3.999 (Simulation time: 07 hr 21 min 18 sec)
Heartbeat CPU 10 instructions: 250000006 cycles: 62513049 heartbeat IPC: 4 cumulative IPC: 3.999 (Simulation time: 07 hr 21 min 18 sec)
Heartbeat CPU 4 instructions: 260000006 cycles: 65010914 heartbeat IPC: 4 cumulative IPC: 3.999 (Simulation time: 07 hr 39 min 21 sec)
Heartbeat CPU 13 instructions: 260000009 cycles: 65011001 heartbeat IPC: 4 cumulative IPC: 3.999 (Simulation time: 07 hr 39 min 21 sec)
Heartbeat CPU 11 instructions: 260000004 cycles: 65011007 heartbeat IPC: 4 cumulative IPC: 3.999 (Simulation time: 07 hr 39 min 21 sec)
Heartbeat CPU 3 instructions: 260000004 cycles: 65011008 heartbeat IPC: 4 cumulative IPC: 3.999 (Simulation time: 07 hr 39 min 21 sec)
Heartbeat CPU 5 instructions: 260000005 cycles: 65011029 heartbeat IPC: 4 cumulative IPC: 3.999 (Simulation time: 07 hr 39 min 21 sec)
Heartbeat CPU 12 instructions: 260000006 cycles: 65011103 heartbeat IPC: 4 cumulative IPC: 3.999 (Simulation time: 07 hr 39 min 21 sec)
Heartbeat CPU 14 instructions: 260000002 cycles: 65011231 heartbeat IPC: 4 cumulative IPC: 3.999 (Simulation time: 07 hr 39 min 21 sec)
Heartbeat CPU 6 instructions: 260000006 cycles: 65011241 heartbeat IPC: 4 cumulative IPC: 3.999 (Simulation time: 07 hr 39 min 21 sec)
Heartbeat CPU 7 instructions: 260000003 cycles: 65011268 heartbeat IPC: 4 cumulative IPC: 3.999 (Simulation time: 07 hr 39 min 21 sec)
Heartbeat CPU 15 instructions: 260000003 cycles: 65011340 heartbeat IPC: 4 cumulative IPC: 3.999 (Simulation time: 07 hr 39 min 21 sec)
Heartbeat CPU 2 instructions: 260000006 cycles: 65012866 heartbeat IPC: 4 cumulative IPC: 3.999 (Simulation time: 07 hr 39 min 22 sec)
Heartbeat CPU 10 instructions: 260000006 cycles: 65013049 heartbeat IPC: 4 cumulative IPC: 3.999 (Simulation time: 07 hr 39 min 22 sec)
Heartbeat CPU 1 instructions: 150000011 cycles: 65168953 heartbeat IPC: 2.381 cumulative IPC: 2.302 (Simulation time: 07 hr 40 min 38 sec)
Heartbeat CPU 9 instructions: 150000020 cycles: 65169034 heartbeat IPC: 2.381 cumulative IPC: 2.302 (Simulation time: 07 hr 40 min 38 sec)
Heartbeat CPU 4 instructions: 270000006 cycles: 67510914 heartbeat IPC: 4 cumulative IPC: 3.999 (Simulation time: 07 hr 58 min 42 sec)
Heartbeat CPU 13 instructions: 270000009 cycles: 67511001 heartbeat IPC: 4 cumulative IPC: 3.999 (Simulation time: 07 hr 58 min 42 sec)
Heartbeat CPU 11 instructions: 270000004 cycles: 67511007 heartbeat IPC: 4 cumulative IPC: 3.999 (Simulation time: 07 hr 58 min 42 sec)
Heartbeat CPU 3 instructions: 270000004 cycles: 67511008 heartbeat IPC: 4 cumulative IPC: 3.999 (Simulation time: 07 hr 58 min 42 sec)
Heartbeat CPU 5 instructions: 270000005 cycles: 67511029 heartbeat IPC: 4 cumulative IPC: 3.999 (Simulation time: 07 hr 58 min 42 sec)
Heartbeat CPU 12 instructions: 270000006 cycles: 67511103 heartbeat IPC: 4 cumulative IPC: 3.999 (Simulation time: 07 hr 58 min 42 sec)
Heartbeat CPU 14 instructions: 270000002 cycles: 67511231 heartbeat IPC: 4 cumulative IPC: 3.999 (Simulation time: 07 hr 58 min 42 sec)
Heartbeat CPU 6 instructions: 270000006 cycles: 67511241 heartbeat IPC: 4 cumulative IPC: 3.999 (Simulation time: 07 hr 58 min 42 sec)
Heartbeat CPU 7 instructions: 270000003 cycles: 67511268 heartbeat IPC: 4 cumulative IPC: 3.999 (Simulation time: 07 hr 58 min 42 sec)
Heartbeat CPU 15 instructions: 270000003 cycles: 67511340 heartbeat IPC: 4 cumulative IPC: 3.999 (Simulation time: 07 hr 58 min 42 sec)
Heartbeat CPU 2 instructions: 270000006 cycles: 67512866 heartbeat IPC: 4 cumulative IPC: 3.999 (Simulation time: 07 hr 58 min 42 sec)
Heartbeat CPU 10 instructions: 270000006 cycles: 67513049 heartbeat IPC: 4 cumulative IPC: 3.999 (Simulation time: 07 hr 58 min 43 sec)
*** Reached end of trace: (2, "/home/harshraj/COALESCE-Hashed-Perceptron-Cache-Replacement-Policy/simulator/traces/ocean_8t/ocean2.champsimtrace")
*** Reached end of trace: (10, "/home/harshraj/COALESCE-Hashed-Perceptron-Cache-Replacement-Policy/simulator/traces/ocean_8t/ocean2.champsimtrace")
*** Reached end of trace: (13, "/home/harshraj/COALESCE-Hashed-Perceptron-Cache-Replacement-Policy/simulator/traces/ocean_8t/ocean5.champsimtrace")
*** Reached end of trace: (5, "/home/harshraj/COALESCE-Hashed-Perceptron-Cache-Replacement-Policy/simulator/traces/ocean_8t/ocean5.champsimtrace")
*** Reached end of trace: (4, "/home/harshraj/COALESCE-Hashed-Perceptron-Cache-Replacement-Policy/simulator/traces/ocean_8t/ocean4.champsimtrace")
*** Reached end of trace: (12, "/home/harshraj/COALESCE-Hashed-Perceptron-Cache-Replacement-Policy/simulator/traces/ocean_8t/ocean4.champsimtrace")
*** Reached end of trace: (14, "/home/harshraj/COALESCE-Hashed-Perceptron-Cache-Replacement-Policy/simulator/traces/ocean_8t/ocean6.champsimtrace")
*** Reached end of trace: (6, "/home/harshraj/COALESCE-Hashed-Perceptron-Cache-Replacement-Policy/simulator/traces/ocean_8t/ocean6.champsimtrace")
*** Reached end of trace: (11, "/home/harshraj/COALESCE-Hashed-Perceptron-Cache-Replacement-Policy/simulator/traces/ocean_8t/ocean3.champsimtrace")
*** Reached end of trace: (3, "/home/harshraj/COALESCE-Hashed-Perceptron-Cache-Replacement-Policy/simulator/traces/ocean_8t/ocean3.champsimtrace")
*** Reached end of trace: (7, "/home/harshraj/COALESCE-Hashed-Perceptron-Cache-Replacement-Policy/simulator/traces/ocean_8t/ocean7.champsimtrace")
*** Reached end of trace: (15, "/home/harshraj/COALESCE-Hashed-Perceptron-Cache-Replacement-Policy/simulator/traces/ocean_8t/ocean7.champsimtrace")
Heartbeat CPU 1 instructions: 160000014 cycles: 69288943 heartbeat IPC: 2.427 cumulative IPC: 2.309 (Simulation time: 08 hr 11 min 45 sec)
Heartbeat CPU 9 instructions: 160000022 cycles: 69288943 heartbeat IPC: 2.427 cumulative IPC: 2.309 (Simulation time: 08 hr 11 min 45 sec)
Heartbeat CPU 4 instructions: 280000006 cycles: 70010914 heartbeat IPC: 4 cumulative IPC: 3.999 (Simulation time: 08 hr 16 min 47 sec)
Heartbeat CPU 13 instructions: 280000009 cycles: 70011001 heartbeat IPC: 4 cumulative IPC: 3.999 (Simulation time: 08 hr 16 min 47 sec)
Heartbeat CPU 11 instructions: 280000004 cycles: 70011007 heartbeat IPC: 4 cumulative IPC: 3.999 (Simulation time: 08 hr 16 min 47 sec)
Heartbeat CPU 3 instructions: 280000004 cycles: 70011008 heartbeat IPC: 4 cumulative IPC: 3.999 (Simulation time: 08 hr 16 min 47 sec)
Heartbeat CPU 5 instructions: 280000005 cycles: 70011029 heartbeat IPC: 4 cumulative IPC: 3.999 (Simulation time: 08 hr 16 min 47 sec)
Heartbeat CPU 12 instructions: 280000006 cycles: 70011103 heartbeat IPC: 4 cumulative IPC: 3.999 (Simulation time: 08 hr 16 min 47 sec)
Heartbeat CPU 14 instructions: 280000002 cycles: 70011231 heartbeat IPC: 4 cumulative IPC: 3.999 (Simulation time: 08 hr 16 min 47 sec)
Heartbeat CPU 6 instructions: 280000006 cycles: 70011241 heartbeat IPC: 4 cumulative IPC: 3.999 (Simulation time: 08 hr 16 min 47 sec)
Heartbeat CPU 7 instructions: 280000003 cycles: 70011268 heartbeat IPC: 4 cumulative IPC: 3.999 (Simulation time: 08 hr 16 min 47 sec)
Heartbeat CPU 15 instructions: 280000003 cycles: 70011340 heartbeat IPC: 4 cumulative IPC: 3.999 (Simulation time: 08 hr 16 min 47 sec)
Heartbeat CPU 2 instructions: 280000006 cycles: 70012866 heartbeat IPC: 4 cumulative IPC: 3.999 (Simulation time: 08 hr 16 min 48 sec)
Heartbeat CPU 10 instructions: 280000006 cycles: 70013049 heartbeat IPC: 4 cumulative IPC: 3.999 (Simulation time: 08 hr 16 min 48 sec)
Heartbeat CPU 4 instructions: 290000006 cycles: 72510914 heartbeat IPC: 4 cumulative IPC: 3.999 (Simulation time: 08 hr 35 min 01 sec)
Heartbeat CPU 13 instructions: 290000009 cycles: 72511001 heartbeat IPC: 4 cumulative IPC: 3.999 (Simulation time: 08 hr 35 min 01 sec)
Heartbeat CPU 11 instructions: 290000004 cycles: 72511007 heartbeat IPC: 4 cumulative IPC: 3.999 (Simulation time: 08 hr 35 min 01 sec)
Heartbeat CPU 3 instructions: 290000004 cycles: 72511008 heartbeat IPC: 4 cumulative IPC: 3.999 (Simulation time: 08 hr 35 min 01 sec)
Heartbeat CPU 5 instructions: 290000005 cycles: 72511029 heartbeat IPC: 4 cumulative IPC: 3.999 (Simulation time: 08 hr 35 min 01 sec)
Heartbeat CPU 12 instructions: 290000006 cycles: 72511103 heartbeat IPC: 4 cumulative IPC: 3.999 (Simulation time: 08 hr 35 min 01 sec)
Heartbeat CPU 14 instructions: 290000002 cycles: 72511231 heartbeat IPC: 4 cumulative IPC: 3.999 (Simulation time: 08 hr 35 min 01 sec)
Heartbeat CPU 6 instructions: 290000006 cycles: 72511241 heartbeat IPC: 4 cumulative IPC: 3.999 (Simulation time: 08 hr 35 min 01 sec)
Heartbeat CPU 7 instructions: 290000003 cycles: 72511268 heartbeat IPC: 4 cumulative IPC: 3.999 (Simulation time: 08 hr 35 min 01 sec)
Heartbeat CPU 15 instructions: 290000003 cycles: 72511340 heartbeat IPC: 4 cumulative IPC: 3.999 (Simulation time: 08 hr 35 min 01 sec)
Heartbeat CPU 2 instructions: 290000006 cycles: 72512866 heartbeat IPC: 4 cumulative IPC: 3.999 (Simulation time: 08 hr 35 min 02 sec)
Heartbeat CPU 10 instructions: 290000006 cycles: 72513049 heartbeat IPC: 4 cumulative IPC: 3.999 (Simulation time: 08 hr 35 min 02 sec)
Heartbeat CPU 1 instructions: 170000014 cycles: 74859951 heartbeat IPC: 1.795 cumulative IPC: 2.271 (Simulation time: 08 hr 51 min 51 sec)
Heartbeat CPU 9 instructions: 170000022 cycles: 74859951 heartbeat IPC: 1.795 cumulative IPC: 2.271 (Simulation time: 08 hr 51 min 51 sec)
Heartbeat CPU 4 instructions: 300000006 cycles: 75010914 heartbeat IPC: 4 cumulative IPC: 3.999 (Simulation time: 08 hr 53 min 04 sec)
Heartbeat CPU 13 instructions: 300000009 cycles: 75011001 heartbeat IPC: 4 cumulative IPC: 3.999 (Simulation time: 08 hr 53 min 04 sec)
Heartbeat CPU 11 instructions: 300000004 cycles: 75011007 heartbeat IPC: 4 cumulative IPC: 3.999 (Simulation time: 08 hr 53 min 04 sec)
Heartbeat CPU 3 instructions: 300000004 cycles: 75011008 heartbeat IPC: 4 cumulative IPC: 3.999 (Simulation time: 08 hr 53 min 04 sec)
Heartbeat CPU 5 instructions: 300000005 cycles: 75011029 heartbeat IPC: 4 cumulative IPC: 3.999 (Simulation time: 08 hr 53 min 04 sec)
Heartbeat CPU 12 instructions: 300000006 cycles: 75011103 heartbeat IPC: 4 cumulative IPC: 3.999 (Simulation time: 08 hr 53 min 04 sec)
Heartbeat CPU 14 instructions: 300000002 cycles: 75011231 heartbeat IPC: 4 cumulative IPC: 3.999 (Simulation time: 08 hr 53 min 04 sec)
Heartbeat CPU 6 instructions: 300000006 cycles: 75011241 heartbeat IPC: 4 cumulative IPC: 3.999 (Simulation time: 08 hr 53 min 04 sec)
Heartbeat CPU 7 instructions: 300000003 cycles: 75011268 heartbeat IPC: 4 cumulative IPC: 3.999 (Simulation time: 08 hr 53 min 04 sec)
Heartbeat CPU 15 instructions: 300000003 cycles: 75011340 heartbeat IPC: 4 cumulative IPC: 3.999 (Simulation time: 08 hr 53 min 04 sec)
Heartbeat CPU 2 instructions: 300000006 cycles: 75012866 heartbeat IPC: 4 cumulative IPC: 3.999 (Simulation time: 08 hr 53 min 05 sec)
Heartbeat CPU 10 instructions: 300000006 cycles: 75013049 heartbeat IPC: 4 cumulative IPC: 3.999 (Simulation time: 08 hr 53 min 05 sec)
Heartbeat CPU 4 instructions: 310000006 cycles: 77510914 heartbeat IPC: 4 cumulative IPC: 3.999 (Simulation time: 09 hr 11 min 24 sec)
Heartbeat CPU 13 instructions: 310000009 cycles: 77511001 heartbeat IPC: 4 cumulative IPC: 3.999 (Simulation time: 09 hr 11 min 24 sec)
Heartbeat CPU 11 instructions: 310000004 cycles: 77511007 heartbeat IPC: 4 cumulative IPC: 3.999 (Simulation time: 09 hr 11 min 24 sec)
Heartbeat CPU 3 instructions: 310000004 cycles: 77511008 heartbeat IPC: 4 cumulative IPC: 3.999 (Simulation time: 09 hr 11 min 24 sec)
Heartbeat CPU 5 instructions: 310000005 cycles: 77511029 heartbeat IPC: 4 cumulative IPC: 3.999 (Simulation time: 09 hr 11 min 24 sec)
Heartbeat CPU 12 instructions: 310000006 cycles: 77511103 heartbeat IPC: 4 cumulative IPC: 3.999 (Simulation time: 09 hr 11 min 24 sec)
Heartbeat CPU 14 instructions: 310000002 cycles: 77511231 heartbeat IPC: 4 cumulative IPC: 3.999 (Simulation time: 09 hr 11 min 24 sec)
Heartbeat CPU 6 instructions: 310000006 cycles: 77511241 heartbeat IPC: 4 cumulative IPC: 3.999 (Simulation time: 09 hr 11 min 24 sec)
Heartbeat CPU 7 instructions: 310000003 cycles: 77511268 heartbeat IPC: 4 cumulative IPC: 3.999 (Simulation time: 09 hr 11 min 24 sec)
Heartbeat CPU 15 instructions: 310000003 cycles: 77511340 heartbeat IPC: 4 cumulative IPC: 3.999 (Simulation time: 09 hr 11 min 24 sec)
Heartbeat CPU 2 instructions: 310000006 cycles: 77512866 heartbeat IPC: 4 cumulative IPC: 3.999 (Simulation time: 09 hr 11 min 25 sec)
Heartbeat CPU 10 instructions: 310000006 cycles: 77513049 heartbeat IPC: 4 cumulative IPC: 3.999 (Simulation time: 09 hr 11 min 25 sec)
Heartbeat CPU 1 instructions: 180000017 cycles: 78400564 heartbeat IPC: 2.824 cumulative IPC: 2.296 (Simulation time: 09 hr 18 min 13 sec)
Heartbeat CPU 9 instructions: 180000025 cycles: 78400567 heartbeat IPC: 2.824 cumulative IPC: 2.296 (Simulation time: 09 hr 18 min 13 sec)
*** Reached end of trace: (2, "/home/harshraj/COALESCE-Hashed-Perceptron-Cache-Replacement-Policy/simulator/traces/ocean_8t/ocean2.champsimtrace")
*** Reached end of trace: (10, "/home/harshraj/COALESCE-Hashed-Perceptron-Cache-Replacement-Policy/simulator/traces/ocean_8t/ocean2.champsimtrace")
*** Reached end of trace: (9, "/home/harshraj/COALESCE-Hashed-Perceptron-Cache-Replacement-Policy/simulator/traces/ocean_8t/ocean1.champsimtrace")
*** Reached end of trace: (1, "/home/harshraj/COALESCE-Hashed-Perceptron-Cache-Replacement-Policy/simulator/traces/ocean_8t/ocean1.champsimtrace")
*** Reached end of trace: (13, "/home/harshraj/COALESCE-Hashed-Perceptron-Cache-Replacement-Policy/simulator/traces/ocean_8t/ocean5.champsimtrace")
*** Reached end of trace: (5, "/home/harshraj/COALESCE-Hashed-Perceptron-Cache-Replacement-Policy/simulator/traces/ocean_8t/ocean5.champsimtrace")
*** Reached end of trace: (4, "/home/harshraj/COALESCE-Hashed-Perceptron-Cache-Replacement-Policy/simulator/traces/ocean_8t/ocean4.champsimtrace")
*** Reached end of trace: (12, "/home/harshraj/COALESCE-Hashed-Perceptron-Cache-Replacement-Policy/simulator/traces/ocean_8t/ocean4.champsimtrace")
*** Reached end of trace: (14, "/home/harshraj/COALESCE-Hashed-Perceptron-Cache-Replacement-Policy/simulator/traces/ocean_8t/ocean6.champsimtrace")
*** Reached end of trace: (6, "/home/harshraj/COALESCE-Hashed-Perceptron-Cache-Replacement-Policy/simulator/traces/ocean_8t/ocean6.champsimtrace")
*** Reached end of trace: (11, "/home/harshraj/COALESCE-Hashed-Perceptron-Cache-Replacement-Policy/simulator/traces/ocean_8t/ocean3.champsimtrace")
*** Reached end of trace: (3, "/home/harshraj/COALESCE-Hashed-Perceptron-Cache-Replacement-Policy/simulator/traces/ocean_8t/ocean3.champsimtrace")
*** Reached end of trace: (7, "/home/harshraj/COALESCE-Hashed-Perceptron-Cache-Replacement-Policy/simulator/traces/ocean_8t/ocean7.champsimtrace")
*** Reached end of trace: (15, "/home/harshraj/COALESCE-Hashed-Perceptron-Cache-Replacement-Policy/simulator/traces/ocean_8t/ocean7.champsimtrace")
Heartbeat CPU 4 instructions: 320000006 cycles: 80010914 heartbeat IPC: 4 cumulative IPC: 3.999 (Simulation time: 09 hr 30 min 44 sec)
Heartbeat CPU 13 instructions: 320000009 cycles: 80011001 heartbeat IPC: 4 cumulative IPC: 3.999 (Simulation time: 09 hr 30 min 44 sec)
Heartbeat CPU 11 instructions: 320000004 cycles: 80011007 heartbeat IPC: 4 cumulative IPC: 3.999 (Simulation time: 09 hr 30 min 44 sec)
Heartbeat CPU 3 instructions: 320000004 cycles: 80011008 heartbeat IPC: 4 cumulative IPC: 3.999 (Simulation time: 09 hr 30 min 44 sec)
Heartbeat CPU 5 instructions: 320000005 cycles: 80011029 heartbeat IPC: 4 cumulative IPC: 3.999 (Simulation time: 09 hr 30 min 44 sec)
Heartbeat CPU 12 instructions: 320000006 cycles: 80011103 heartbeat IPC: 4 cumulative IPC: 3.999 (Simulation time: 09 hr 30 min 44 sec)
Heartbeat CPU 14 instructions: 320000002 cycles: 80011231 heartbeat IPC: 4 cumulative IPC: 3.999 (Simulation time: 09 hr 30 min 44 sec)
Heartbeat CPU 6 instructions: 320000006 cycles: 80011241 heartbeat IPC: 4 cumulative IPC: 3.999 (Simulation time: 09 hr 30 min 44 sec)
Heartbeat CPU 7 instructions: 320000003 cycles: 80011268 heartbeat IPC: 4 cumulative IPC: 3.999 (Simulation time: 09 hr 30 min 44 sec)
Heartbeat CPU 15 instructions: 320000003 cycles: 80011340 heartbeat IPC: 4 cumulative IPC: 3.999 (Simulation time: 09 hr 30 min 44 sec)
Heartbeat CPU 2 instructions: 320000006 cycles: 80012866 heartbeat IPC: 4 cumulative IPC: 3.999 (Simulation time: 09 hr 30 min 45 sec)
Heartbeat CPU 10 instructions: 320000006 cycles: 80013049 heartbeat IPC: 4 cumulative IPC: 3.999 (Simulation time: 09 hr 30 min 45 sec)
Heartbeat CPU 1 instructions: 190000020 cycles: 82406727 heartbeat IPC: 2.496 cumulative IPC: 2.306 (Simulation time: 09 hr 47 min 06 sec)
Heartbeat CPU 9 instructions: 190000028 cycles: 82408690 heartbeat IPC: 2.495 cumulative IPC: 2.306 (Simulation time: 09 hr 47 min 06 sec)
Heartbeat CPU 4 instructions: 330000006 cycles: 82510914 heartbeat IPC: 4 cumulative IPC: 3.999 (Simulation time: 09 hr 47 min 39 sec)
Heartbeat CPU 13 instructions: 330000009 cycles: 82511001 heartbeat IPC: 4 cumulative IPC: 3.999 (Simulation time: 09 hr 47 min 39 sec)
Heartbeat CPU 11 instructions: 330000004 cycles: 82511007 heartbeat IPC: 4 cumulative IPC: 3.999 (Simulation time: 09 hr 47 min 39 sec)
Heartbeat CPU 3 instructions: 330000004 cycles: 82511008 heartbeat IPC: 4 cumulative IPC: 3.999 (Simulation time: 09 hr 47 min 39 sec)
Heartbeat CPU 5 instructions: 330000005 cycles: 82511029 heartbeat IPC: 4 cumulative IPC: 3.999 (Simulation time: 09 hr 47 min 39 sec)
Heartbeat CPU 12 instructions: 330000006 cycles: 82511103 heartbeat IPC: 4 cumulative IPC: 3.999 (Simulation time: 09 hr 47 min 39 sec)
Heartbeat CPU 14 instructions: 330000002 cycles: 82511231 heartbeat IPC: 4 cumulative IPC: 3.999 (Simulation time: 09 hr 47 min 39 sec)
Heartbeat CPU 6 instructions: 330000006 cycles: 82511241 heartbeat IPC: 4 cumulative IPC: 3.999 (Simulation time: 09 hr 47 min 39 sec)
Heartbeat CPU 7 instructions: 330000003 cycles: 82511268 heartbeat IPC: 4 cumulative IPC: 3.999 (Simulation time: 09 hr 47 min 39 sec)
Heartbeat CPU 15 instructions: 330000003 cycles: 82511340 heartbeat IPC: 4 cumulative IPC: 3.999 (Simulation time: 09 hr 47 min 39 sec)
Heartbeat CPU 2 instructions: 330000006 cycles: 82512866 heartbeat IPC: 4 cumulative IPC: 3.999 (Simulation time: 09 hr 47 min 40 sec)
Heartbeat CPU 10 instructions: 330000006 cycles: 82513049 heartbeat IPC: 4 cumulative IPC: 3.999 (Simulation time: 09 hr 47 min 40 sec)
Heartbeat CPU 8 instructions: 40000006 cycles: 84243648 heartbeat IPC: 0.4458 cumulative IPC: 0.4748 (Simulation time: 10 hr 00 min 51 sec)
Heartbeat CPU 0 instructions: 40000006 cycles: 84244179 heartbeat IPC: 0.4459 cumulative IPC: 0.4748 (Simulation time: 10 hr 00 min 51 sec)
Heartbeat CPU 4 instructions: 340000006 cycles: 85010914 heartbeat IPC: 4 cumulative IPC: 3.999 (Simulation time: 10 hr 06 min 07 sec)
Heartbeat CPU 13 instructions: 340000009 cycles: 85011001 heartbeat IPC: 4 cumulative IPC: 3.999 (Simulation time: 10 hr 06 min 07 sec)
Heartbeat CPU 11 instructions: 340000004 cycles: 85011007 heartbeat IPC: 4 cumulative IPC: 3.999 (Simulation time: 10 hr 06 min 07 sec)
Heartbeat CPU 3 instructions: 340000004 cycles: 85011008 heartbeat IPC: 4 cumulative IPC: 3.999 (Simulation time: 10 hr 06 min 07 sec)
Heartbeat CPU 5 instructions: 340000005 cycles: 85011029 heartbeat IPC: 4 cumulative IPC: 3.999 (Simulation time: 10 hr 06 min 07 sec)
Heartbeat CPU 12 instructions: 340000006 cycles: 85011103 heartbeat IPC: 4 cumulative IPC: 3.999 (Simulation time: 10 hr 06 min 07 sec)
Heartbeat CPU 14 instructions: 340000002 cycles: 85011231 heartbeat IPC: 4 cumulative IPC: 3.999 (Simulation time: 10 hr 06 min 08 sec)
Heartbeat CPU 6 instructions: 340000006 cycles: 85011241 heartbeat IPC: 4 cumulative IPC: 3.999 (Simulation time: 10 hr 06 min 08 sec)
Heartbeat CPU 7 instructions: 340000003 cycles: 85011268 heartbeat IPC: 4 cumulative IPC: 3.999 (Simulation time: 10 hr 06 min 08 sec)
Heartbeat CPU 15 instructions: 340000003 cycles: 85011340 heartbeat IPC: 4 cumulative IPC: 3.999 (Simulation time: 10 hr 06 min 08 sec)
Heartbeat CPU 2 instructions: 340000006 cycles: 85012866 heartbeat IPC: 4 cumulative IPC: 3.999 (Simulation time: 10 hr 06 min 08 sec)
Heartbeat CPU 10 instructions: 340000006 cycles: 85013049 heartbeat IPC: 4 cumulative IPC: 3.999 (Simulation time: 10 hr 06 min 08 sec)
Heartbeat CPU 1 instructions: 200000020 cycles: 86495917 heartbeat IPC: 2.445 cumulative IPC: 2.312 (Simulation time: 10 hr 17 min 00 sec)
Heartbeat CPU 9 instructions: 200000028 cycles: 86495922 heartbeat IPC: 2.447 cumulative IPC: 2.312 (Simulation time: 10 hr 17 min 00 sec)
Heartbeat CPU 4 instructions: 350000006 cycles: 87510914 heartbeat IPC: 4 cumulative IPC: 4 (Simulation time: 10 hr 23 min 53 sec)
Heartbeat CPU 13 instructions: 350000009 cycles: 87511001 heartbeat IPC: 4 cumulative IPC: 3.999 (Simulation time: 10 hr 23 min 53 sec)
Heartbeat CPU 11 instructions: 350000004 cycles: 87511007 heartbeat IPC: 4 cumulative IPC: 3.999 (Simulation time: 10 hr 23 min 53 sec)
Heartbeat CPU 3 instructions: 350000004 cycles: 87511008 heartbeat IPC: 4 cumulative IPC: 3.999 (Simulation time: 10 hr 23 min 53 sec)
Heartbeat CPU 5 instructions: 350000005 cycles: 87511029 heartbeat IPC: 4 cumulative IPC: 3.999 (Simulation time: 10 hr 23 min 53 sec)
Heartbeat CPU 12 instructions: 350000006 cycles: 87511103 heartbeat IPC: 4 cumulative IPC: 3.999 (Simulation time: 10 hr 23 min 53 sec)
Heartbeat CPU 14 instructions: 350000002 cycles: 87511231 heartbeat IPC: 4 cumulative IPC: 3.999 (Simulation time: 10 hr 23 min 53 sec)
Heartbeat CPU 6 instructions: 350000006 cycles: 87511241 heartbeat IPC: 4 cumulative IPC: 3.999 (Simulation time: 10 hr 23 min 53 sec)
Heartbeat CPU 7 instructions: 350000003 cycles: 87511268 heartbeat IPC: 4 cumulative IPC: 3.999 (Simulation time: 10 hr 23 min 53 sec)
Heartbeat CPU 15 instructions: 350000003 cycles: 87511340 heartbeat IPC: 4 cumulative IPC: 3.999 (Simulation time: 10 hr 23 min 53 sec)
Heartbeat CPU 2 instructions: 350000006 cycles: 87512866 heartbeat IPC: 4 cumulative IPC: 3.999 (Simulation time: 10 hr 23 min 54 sec)
Heartbeat CPU 10 instructions: 350000006 cycles: 87513049 heartbeat IPC: 4 cumulative IPC: 3.999 (Simulation time: 10 hr 23 min 54 sec)
Heartbeat CPU 4 instructions: 360000006 cycles: 90010914 heartbeat IPC: 4 cumulative IPC: 4 (Simulation time: 10 hr 43 min 15 sec)
Heartbeat CPU 13 instructions: 360000009 cycles: 90011001 heartbeat IPC: 4 cumulative IPC: 4 (Simulation time: 10 hr 43 min 15 sec)
Heartbeat CPU 11 instructions: 360000004 cycles: 90011007 heartbeat IPC: 4 cumulative IPC: 4 (Simulation time: 10 hr 43 min 15 sec)
Heartbeat CPU 3 instructions: 360000004 cycles: 90011008 heartbeat IPC: 4 cumulative IPC: 4 (Simulation time: 10 hr 43 min 15 sec)
Heartbeat CPU 5 instructions: 360000005 cycles: 90011029 heartbeat IPC: 4 cumulative IPC: 4 (Simulation time: 10 hr 43 min 15 sec)
Heartbeat CPU 12 instructions: 360000006 cycles: 90011103 heartbeat IPC: 4 cumulative IPC: 4 (Simulation time: 10 hr 43 min 15 sec)
[...]
cpu12_STLB COHERENCE INVALIDATIONS:          0
cpu12_STLB COHERENCE WRITE-HIT OTHER-SHARER EVENTS:          0
cpu12->cpu12_L2C TOTAL        ACCESS:      44438 HIT:      44438 MISS:          0 MSHR_MERGE:          0
cpu12->cpu12_L2C LOAD         ACCESS:      44438 HIT:      44438 MISS:          0 MSHR_MERGE:          0
cpu12->cpu12_L2C RFO          ACCESS:          0 HIT:          0 MISS:          0 MSHR_MERGE:          0
cpu12->cpu12_L2C PREFETCH     ACCESS:          0 HIT:          0 MISS:          0 MSHR_MERGE:          0
cpu12->cpu12_L2C WRITE        ACCESS:          0 HIT:          0 MISS:          0 MSHR_MERGE:          0
cpu12->cpu12_L2C TRANSLATION  ACCESS:          0 HIT:          0 MISS:          0 MSHR_MERGE:          0
cpu12->cpu12_L2C PREFETCH REQUESTED:          0 ISSUED:          0 USEFUL:          0 USELESS:          0
cpu12->cpu12_L2C AVERAGE MISS LATENCY: - cycles
cpu12_L2C COHERENCE INVALIDATIONS:          0
cpu12_L2C COHERENCE WRITE-HIT OTHER-SHARER EVENTS:          0
cpu12->cpu12_L1I TOTAL        ACCESS:  416407700 HIT:  416336733 MISS:      70967 MSHR_MERGE:      26529
cpu12->cpu12_L1I LOAD         ACCESS:  416407700 HIT:  416336733 MISS:      70967 MSHR_MERGE:      26529
cpu12->cpu12_L1I RFO          ACCESS:          0 HIT:          0 MISS:          0 MSHR_MERGE:          0
cpu12->cpu12_L1I PREFETCH     ACCESS:          0 HIT:          0 MISS:          0 MSHR_MERGE:          0
cpu12->cpu12_L1I WRITE        ACCESS:          0 HIT:          0 MISS:          0 MSHR_MERGE:          0
cpu12->cpu12_L1I TRANSLATION  ACCESS:          0 HIT:          0 MISS:          0 MSHR_MERGE:          0
cpu12->cpu12_L1I PREFETCH REQUESTED:          0 ISSUED:          0 USEFUL:          0 USELESS:          0
cpu12->cpu12_L1I AVERAGE MISS LATENCY: 7.2 cycles
cpu12_L1I COHERENCE INVALIDATIONS:          0
cpu12_L1I COHERENCE WRITE-HIT OTHER-SHARER EVENTS:          0
cpu12_L1D COHERENCE INVALIDATIONS:          0
cpu12_L1D COHERENCE WRITE-HIT OTHER-SHARER EVENTS:          0
cpu12->cpu12_ITLB TOTAL        ACCESS:  329200418 HIT:  329198736 MISS:       1682 MSHR_MERGE:        870
cpu12->cpu12_ITLB LOAD         ACCESS:  329200418 HIT:  329198736 MISS:       1682 MSHR_MERGE:        870
cpu12->cpu12_ITLB RFO          ACCESS:          0 HIT:          0 MISS:          0 MSHR_MERGE:          0
cpu12->cpu12_ITLB PREFETCH     ACCESS:          0 HIT:          0 MISS:          0 MSHR_MERGE:          0
cpu12->cpu12_ITLB WRITE        ACCESS:          0 HIT:          0 MISS:          0 MSHR_MERGE:          0
cpu12->cpu12_ITLB TRANSLATION  ACCESS:          0 HIT:          0 MISS:          0 MSHR_MERGE:          0
cpu12->cpu12_ITLB PREFETCH REQUESTED:          0 ISSUED:          0 USEFUL:          0 USELESS:          0
cpu12->cpu12_ITLB AVERAGE MISS LATENCY: 4 cycles
cpu12_ITLB COHERENCE INVALIDATIONS:          0
cpu12_ITLB COHERENCE WRITE-HIT OTHER-SHARER EVENTS:          0
cpu12_DTLB COHERENCE INVALIDATIONS:          0
cpu12_DTLB COHERENCE WRITE-HIT OTHER-SHARER EVENTS:          0
cpu11->cpu11_STLB TOTAL        ACCESS:        928 HIT:        928 MISS:          0 MSHR_MERGE:          0
cpu11->cpu11_STLB LOAD         ACCESS:        928 HIT:        928 MISS:          0 MSHR_MERGE:          0
cpu11->cpu11_STLB RFO          ACCESS:          0 HIT:          0 MISS:          0 MSHR_MERGE:          0
cpu11->cpu11_STLB PREFETCH     ACCESS:          0 HIT:          0 MISS:          0 MSHR_MERGE:          0
cpu11->cpu11_STLB WRITE        ACCESS:          0 HIT:          0 MISS:          0 MSHR_MERGE:          0
cpu11->cpu11_STLB TRANSLATION  ACCESS:          0 HIT:          0 MISS:          0 MSHR_MERGE:          0
cpu11->cpu11_STLB PREFETCH REQUESTED:          0 ISSUED:          0 USEFUL:          0 USELESS:          0
cpu11->cpu11_STLB AVERAGE MISS LATENCY: - cycles
cpu11_STLB COHERENCE INVALIDATIONS:          0
cpu11_STLB COHERENCE WRITE-HIT OTHER-SHARER EVENTS:          0
cpu11->cpu11_L2C TOTAL        ACCESS:      91171 HIT:      91171 MISS:          0 MSHR_MERGE:          0
cpu11->cpu11_L2C LOAD         ACCESS:      91171 HIT:      91171 MISS:          0 MSHR_MERGE:          0
cpu11->cpu11_L2C RFO          ACCESS:          0 HIT:          0 MISS:          0 MSHR_MERGE:          0
cpu11->cpu11_L2C PREFETCH     ACCESS:          0 HIT:          0 MISS:          0 MSHR_MERGE:          0
cpu11->cpu11_L2C WRITE        ACCESS:          0 HIT:          0 MISS:          0 MSHR_MERGE:          0
cpu11->cpu11_L2C TRANSLATION  ACCESS:          0 HIT:          0 MISS:          0 MSHR_MERGE:          0
cpu11->cpu11_L2C PREFETCH REQUESTED:          0 ISSUED:          0 USEFUL:          0 USELESS:          0
cpu11->cpu11_L2C AVERAGE MISS LATENCY: - cycles
cpu11_L2C COHERENCE INVALIDATIONS:          0
cpu11_L2C COHERENCE WRITE-HIT OTHER-SHARER EVENTS:          0
cpu11->cpu11_L1I TOTAL        ACCESS:  415803565 HIT:  415666841 MISS:     136724 MSHR_MERGE:      45553
cpu11->cpu11_L1I LOAD         ACCESS:  415803565 HIT:  415666841 MISS:     136724 MSHR_MERGE:      45553
cpu11->cpu11_L1I RFO          ACCESS:          0 HIT:          0 MISS:          0 MSHR_MERGE:          0
cpu11->cpu11_L1I PREFETCH     ACCESS:          0 HIT:          0 MISS:          0 MSHR_MERGE:          0
cpu11->cpu11_L1I WRITE        ACCESS:          0 HIT:          0 MISS:          0 MSHR_MERGE:          0
cpu11->cpu11_L1I TRANSLATION  ACCESS:          0 HIT:          0 MISS:          0 MSHR_MERGE:          0
cpu11->cpu11_L1I PREFETCH REQUESTED:          0 ISSUED:          0 USEFUL:          0 USELESS:          0
cpu11->cpu11_L1I AVERAGE MISS LATENCY: 7 cycles
cpu11_L1I COHERENCE INVALIDATIONS:          0
cpu11_L1I COHERENCE WRITE-HIT OTHER-SHARER EVENTS:          0
cpu11_L1D COHERENCE INVALIDATIONS:          0
cpu11_L1D COHERENCE WRITE-HIT OTHER-SHARER EVENTS:          0
cpu11->cpu11_ITLB TOTAL        ACCESS:  329280894 HIT:  329279154 MISS:       1740 MSHR_MERGE:        812
cpu11->cpu11_ITLB LOAD         ACCESS:  329280894 HIT:  329279154 MISS:       1740 MSHR_MERGE:        812
cpu11->cpu11_ITLB RFO          ACCESS:          0 HIT:          0 MISS:          0 MSHR_MERGE:          0
cpu11->cpu11_ITLB PREFETCH     ACCESS:          0 HIT:          0 MISS:          0 MSHR_MERGE:          0
cpu11->cpu11_ITLB WRITE        ACCESS:          0 HIT:          0 MISS:          0 MSHR_MERGE:          0
cpu11->cpu11_ITLB TRANSLATION  ACCESS:          0 HIT:          0 MISS:          0 MSHR_MERGE:          0
cpu11->cpu11_ITLB PREFETCH REQUESTED:          0 ISSUED:          0 USEFUL:          0 USELESS:          0
cpu11->cpu11_ITLB AVERAGE MISS LATENCY: 4 cycles
cpu11_ITLB COHERENCE INVALIDATIONS:          0
cpu11_ITLB COHERENCE WRITE-HIT OTHER-SHARER EVENTS:          0
cpu11_DTLB COHERENCE INVALIDATIONS:          0
cpu11_DTLB COHERENCE WRITE-HIT OTHER-SHARER EVENTS:          0
cpu10->cpu10_STLB TOTAL        ACCESS:        940 HIT:        940 MISS:          0 MSHR_MERGE:          0
cpu10->cpu10_STLB LOAD         ACCESS:        940 HIT:        940 MISS:          0 MSHR_MERGE:          0
cpu10->cpu10_STLB RFO          ACCESS:          0 HIT:          0 MISS:          0 MSHR_MERGE:          0
cpu10->cpu10_STLB PREFETCH     ACCESS:          0 HIT:          0 MISS:          0 MSHR_MERGE:          0
cpu10->cpu10_STLB WRITE        ACCESS:          0 HIT:          0 MISS:          0 MSHR_MERGE:          0
cpu10->cpu10_STLB TRANSLATION  ACCESS:          0 HIT:          0 MISS:          0 MSHR_MERGE:          0
cpu10->cpu10_STLB PREFETCH REQUESTED:          0 ISSUED:          0 USEFUL:          0 USELESS:          0
cpu10->cpu10_STLB AVERAGE MISS LATENCY: - cycles
cpu10_STLB COHERENCE INVALIDATIONS:          0
cpu10_STLB COHERENCE WRITE-HIT OTHER-SHARER EVENTS:          0
cpu10->cpu10_L2C TOTAL        ACCESS:      97072 HIT:      97072 MISS:          0 MSHR_MERGE:          0
cpu10->cpu10_L2C LOAD         ACCESS:      97072 HIT:      97072 MISS:          0 MSHR_MERGE:          0
cpu10->cpu10_L2C RFO          ACCESS:          0 HIT:          0 MISS:          0 MSHR_MERGE:          0
cpu10->cpu10_L2C PREFETCH     ACCESS:          0 HIT:          0 MISS:          0 MSHR_MERGE:          0
cpu10->cpu10_L2C WRITE        ACCESS:          0 HIT:          0 MISS:          0 MSHR_MERGE:          0
cpu10->cpu10_L2C TRANSLATION  ACCESS:          0 HIT:          0 MISS:          0 MSHR_MERGE:          0
cpu10->cpu10_L2C PREFETCH REQUESTED:          0 ISSUED:          0 USEFUL:          0 USELESS:          0
cpu10->cpu10_L2C AVERAGE MISS LATENCY: - cycles
cpu10_L2C COHERENCE INVALIDATIONS:          0
cpu10_L2C COHERENCE WRITE-HIT OTHER-SHARER EVENTS:          0
cpu10->cpu10_L1I TOTAL        ACCESS:  416596852 HIT:  416449970 MISS:     146882 MSHR_MERGE:      49810
cpu10->cpu10_L1I LOAD         ACCESS:  416596852 HIT:  416449970 MISS:     146882 MSHR_MERGE:      49810
cpu10->cpu10_L1I RFO          ACCESS:          0 HIT:          0 MISS:          0 MSHR_MERGE:          0
cpu10->cpu10_L1I PREFETCH     ACCESS:          0 HIT:          0 MISS:          0 MSHR_MERGE:          0
cpu10->cpu10_L1I WRITE        ACCESS:          0 HIT:          0 MISS:          0 MSHR_MERGE:          0
cpu10->cpu10_L1I TRANSLATION  ACCESS:          0 HIT:          0 MISS:          0 MSHR_MERGE:          0
cpu10->cpu10_L1I PREFETCH REQUESTED:          0 ISSUED:          0 USEFUL:          0 USELESS:          0
cpu10->cpu10_L1I AVERAGE MISS LATENCY: 7 cycles
cpu10_L1I COHERENCE INVALIDATIONS:          0
cpu10_L1I COHERENCE WRITE-HIT OTHER-SHARER EVENTS:          0
cpu10_L1D COHERENCE INVALIDATIONS:          0
cpu10_L1D COHERENCE WRITE-HIT OTHER-SHARER EVENTS:          0
cpu10->cpu10_ITLB TOTAL        ACCESS:  329161260 HIT:  329159556 MISS:       1704 MSHR_MERGE:        764
cpu10->cpu10_ITLB LOAD         ACCESS:  329161260 HIT:  329159556 MISS:       1704 MSHR_MERGE:        764
cpu10->cpu10_ITLB RFO          ACCESS:          0 HIT:          0 MISS:          0 MSHR_MERGE:          0
cpu10->cpu10_ITLB PREFETCH     ACCESS:          0 HIT:          0 MISS:          0 MSHR_MERGE:          0
cpu10->cpu10_ITLB WRITE        ACCESS:          0 HIT:          0 MISS:          0 MSHR_MERGE:          0
cpu10->cpu10_ITLB TRANSLATION  ACCESS:          0 HIT:          0 MISS:          0 MSHR_MERGE:          0
cpu10->cpu10_ITLB PREFETCH REQUESTED:          0 ISSUED:          0 USEFUL:          0 USELESS:          0
cpu10->cpu10_ITLB AVERAGE MISS LATENCY: 4 cycles
cpu10_ITLB COHERENCE INVALIDATIONS:          0
cpu10_ITLB COHERENCE WRITE-HIT OTHER-SHARER EVENTS:          0
cpu10_DTLB COHERENCE INVALIDATIONS:          0
cpu10_DTLB COHERENCE WRITE-HIT OTHER-SHARER EVENTS:          0
cpu0->cpu0_STLB TOTAL        ACCESS:    4693267 HIT:    4545570 MISS:     147697 MSHR_MERGE:          0
cpu0->cpu0_STLB LOAD         ACCESS:    4693267 HIT:    4545570 MISS:     147697 MSHR_MERGE:          0
cpu0->cpu0_STLB RFO          ACCESS:          0 HIT:          0 MISS:          0 MSHR_MERGE:          0
cpu0->cpu0_STLB PREFETCH     ACCESS:          0 HIT:          0 MISS:          0 MSHR_MERGE:          0
cpu0->cpu0_STLB WRITE        ACCESS:          0 HIT:          0 MISS:          0 MSHR_MERGE:          0
cpu0->cpu0_STLB TRANSLATION  ACCESS:          0 HIT:          0 MISS:          0 MSHR_MERGE:          0
cpu0->cpu0_STLB PREFETCH REQUESTED:          0 ISSUED:          0 USEFUL:          0 USELESS:          0
cpu0->cpu0_STLB AVERAGE MISS LATENCY: 765.3 cycles
cpu0_STLB COHERENCE INVALIDATIONS:          0
cpu0_STLB COHERENCE WRITE-HIT OTHER-SHARER EVENTS:          0
cpu0->cpu0_L2C TOTAL        ACCESS:   32546276 HIT:   14676048 MISS:   17870228 MSHR_MERGE:          0
cpu0->cpu0_L2C LOAD         ACCESS:   21242034 HIT:    6567629 MISS:   14674405 MSHR_MERGE:          0
cpu0->cpu0_L2C RFO          ACCESS:    3449960 HIT:     487544 MISS:    2962416 MSHR_MERGE:          0
cpu0->cpu0_L2C PREFETCH     ACCESS:          0 HIT:          0 MISS:          0 MSHR_MERGE:          0
cpu0->cpu0_L2C WRITE        ACCESS:    7581877 HIT:    7581271 MISS:        606 MSHR_MERGE:          0
cpu0->cpu0_L2C TRANSLATION  ACCESS:     272405 HIT:      39604 MISS:     232801 MSHR_MERGE:          0
cpu0->cpu0_L2C PREFETCH REQUESTED:          0 ISSUED:          0 USEFUL:          0 USELESS:          0
cpu0->cpu0_L2C AVERAGE MISS LATENCY: 215.8 cycles
cpu0_L2C COHERENCE INVALIDATIONS:          0
cpu0_L2C COHERENCE WRITE-HIT OTHER-SHARER EVENTS:          0
cpu0->cpu0_L1I TOTAL        ACCESS:   31128815 HIT:   31117305 MISS:      11510 MSHR_MERGE:       5283
cpu0->cpu0_L1I LOAD         ACCESS:   31128815 HIT:   31117305 MISS:      11510 MSHR_MERGE:       5283
cpu0->cpu0_L1I RFO          ACCESS:          0 HIT:          0 MISS:          0 MSHR_MERGE:          0
cpu0->cpu0_L1I PREFETCH     ACCESS:          0 HIT:          0 MISS:          0 MSHR_MERGE:          0
cpu0->cpu0_L1I WRITE        ACCESS:          0 HIT:          0 MISS:          0 MSHR_MERGE:          0
cpu0->cpu0_L1I TRANSLATION  ACCESS:          0 HIT:          0 MISS:          0 MSHR_MERGE:          0
cpu0->cpu0_L1I PREFETCH REQUESTED:          0 ISSUED:          0 USEFUL:          0 USELESS:          0
cpu0->cpu0_L1I AVERAGE MISS LATENCY: 281 cycles
cpu0_L1I COHERENCE INVALIDATIONS:          0
cpu0_L1I COHERENCE WRITE-HIT OTHER-SHARER EVENTS:          0
cpu0->cpu0_L1D TOTAL        ACCESS:  103267428 HIT:   74813243 MISS:   28454185 MSHR_MERGE:    3494345
cpu0->cpu0_L1D LOAD         ACCESS:   44800327 HIT:   22654804 MISS:   22145523 MSHR_MERGE:     909440
cpu0->cpu0_L1D RFO          ACCESS:          0 HIT:          0 MISS:          0 MSHR_MERGE:          0
cpu0->cpu0_L1D PREFETCH     ACCESS:          0 HIT:          0 MISS:          0 MSHR_MERGE:          0
cpu0->cpu0_L1D WRITE        ACCESS:   58166541 HIT:   52136283 MISS:    6030258 MSHR_MERGE:    2578906
cpu0->cpu0_L1D TRANSLATION  ACCESS:     300560 HIT:      22156 MISS:     278404 MSHR_MERGE:       5999
cpu0->cpu0_L1D PREFETCH REQUESTED:          0 ISSUED:          0 USEFUL:          0 USELESS:          0
cpu0->cpu0_L1D AVERAGE MISS LATENCY: 162.2 cycles
cpu0_L1D COHERENCE INVALIDATIONS:          0
cpu0_L1D COHERENCE WRITE-HIT OTHER-SHARER EVENTS:          0
cpu0->cpu0_ITLB TOTAL        ACCESS:   29933551 HIT:   29932500 MISS:       1051 MSHR_MERGE:        702
cpu0->cpu0_ITLB LOAD         ACCESS:   29933551 HIT:   29932500 MISS:       1051 MSHR_MERGE:        702
cpu0->cpu0_ITLB RFO          ACCESS:          0 HIT:          0 MISS:          0 MSHR_MERGE:          0
cpu0->cpu0_ITLB PREFETCH     ACCESS:          0 HIT:          0 MISS:          0 MSHR_MERGE:          0
cpu0->cpu0_ITLB WRITE        ACCESS:          0 HIT:          0 MISS:          0 MSHR_MERGE:          0
cpu0->cpu0_ITLB TRANSLATION  ACCESS:          0 HIT:          0 MISS:          0 MSHR_MERGE:          0
cpu0->cpu0_ITLB PREFETCH REQUESTED:          0 ISSUED:          0 USEFUL:          0 USELESS:          0
cpu0->cpu0_ITLB AVERAGE MISS LATENCY: 577.9 cycles
cpu0_ITLB COHERENCE INVALIDATIONS:          0
cpu0_ITLB COHERENCE WRITE-HIT OTHER-SHARER EVENTS:          0
cpu0->cpu0_DTLB TOTAL        ACCESS:   99673429 HIT:   94775189 MISS:    4898240 MSHR_MERGE:     205322
cpu0->cpu0_DTLB LOAD         ACCESS:   99673429 HIT:   94775189 MISS:    4898240 MSHR_MERGE:     205322
cpu0->cpu0_DTLB RFO          ACCESS:          0 HIT:          0 MISS:          0 MSHR_MERGE:          0
cpu0->cpu0_DTLB PREFETCH     ACCESS:          0 HIT:          0 MISS:          0 MSHR_MERGE:          0
cpu0->cpu0_DTLB WRITE        ACCESS:          0 HIT:          0 MISS:          0 MSHR_MERGE:          0
cpu0->cpu0_DTLB TRANSLATION  ACCESS:          0 HIT:          0 MISS:          0 MSHR_MERGE:          0
cpu0->cpu0_DTLB PREFETCH REQUESTED:          0 ISSUED:          0 USEFUL:          0 USELESS:          0
cpu0->cpu0_DTLB AVERAGE MISS LATENCY: 28.08 cycles
cpu0_DTLB COHERENCE INVALIDATIONS:          0
cpu0_DTLB COHERENCE WRITE-HIT OTHER-SHARER EVENTS:          0
cpu0->LLC TOTAL        ACCESS:   24374579 HIT:   10739969 MISS:   13634610 MSHR_MERGE:    5150635
cpu0->LLC LOAD         ACCESS:   14674374 HIT:    6741837 MISS:    7932537 MSHR_MERGE:    4001077
cpu0->LLC RFO          ACCESS:    2962415 HIT:     813012 MISS:    2149403 MSHR_MERGE:    1149558
cpu0->LLC PREFETCH     ACCESS:          0 HIT:          0 MISS:          0 MSHR_MERGE:          0
cpu0->LLC WRITE        ACCESS:    6504989 HIT:    3185083 MISS:    3319906 MSHR_MERGE:          0
cpu0->LLC TRANSLATION  ACCESS:     232801 HIT:         37 MISS:     232764 MSHR_MERGE:          0
cpu0->LLC PREFETCH REQUESTED:          0 ISSUED:          0 USEFUL:          0 USELESS:          0
cpu0->LLC AVERAGE MISS LATENCY: 628.1 cycles
cpu1->LLC TOTAL        ACCESS:    7723511 HIT:    2681714 MISS:    5041797 MSHR_MERGE:    2379816
cpu1->LLC LOAD         ACCESS:    7676107 HIT:    2681714 MISS:    4994393 MSHR_MERGE:    2379816
cpu1->LLC RFO          ACCESS:          0 HIT:          0 MISS:          0 MSHR_MERGE:          0
cpu1->LLC PREFETCH     ACCESS:          0 HIT:          0 MISS:          0 MSHR_MERGE:          0
cpu1->LLC WRITE        ACCESS:          0 HIT:          0 MISS:          0 MSHR_MERGE:          0
cpu1->LLC TRANSLATION  ACCESS:      47404 HIT:          0 MISS:      47404 MSHR_MERGE:          0
cpu1->LLC PREFETCH REQUESTED:          0 ISSUED:          0 USEFUL:          0 USELESS:          0
cpu1->LLC AVERAGE MISS LATENCY: 2264 cycles
cpu8->LLC TOTAL        ACCESS:   24365786 HIT:   10789985 MISS:   13575801 MSHR_MERGE:    4840736
cpu8->LLC LOAD         ACCESS:   14667082 HIT:    6737311 MISS:    7929771 MSHR_MERGE:    3862153
cpu8->LLC RFO          ACCESS:    2963761 HIT:     815335 MISS:    2148426 MSHR_MERGE:     978583
cpu8->LLC PREFETCH     ACCESS:          0 HIT:          0 MISS:          0 MSHR_MERGE:          0
cpu8->LLC WRITE        ACCESS:    6502355 HIT:    3237313 MISS:    3265042 MSHR_MERGE:          0
cpu8->LLC TRANSLATION  ACCESS:     232588 HIT:         26 MISS:     232562 MSHR_MERGE:          0
cpu8->LLC PREFETCH REQUESTED:          0 ISSUED:          0 USEFUL:          0 USELESS:          0
cpu8->LLC AVERAGE MISS LATENCY: 655.6 cycles
cpu9->LLC TOTAL        ACCESS:    7723378 HIT:    2681246 MISS:    5042132 MSHR_MERGE:    2602012
cpu9->LLC LOAD         ACCESS:    7675974 HIT:    2681246 MISS:    4994728 MSHR_MERGE:    2602012
cpu9->LLC RFO          ACCESS:          0 HIT:          0 MISS:          0 MSHR_MERGE:          0
cpu9->LLC PREFETCH     ACCESS:          0 HIT:          0 MISS:          0 MSHR_MERGE:          0
cpu9->LLC WRITE        ACCESS:          0 HIT:          0 MISS:          0 MSHR_MERGE:          0
cpu9->LLC TRANSLATION  ACCESS:      47404 HIT:          0 MISS:      47404 MSHR_MERGE:          0
cpu9->LLC PREFETCH REQUESTED:          0 ISSUED:          0 USEFUL:          0 USELESS:          0
cpu9->LLC AVERAGE MISS LATENCY: 2075 cycles
LLC COHERENCE INVALIDATIONS:    7763930
LLC COHERENCE WRITE-HIT OTHER-SHARER EVENTS:    6393969
LLC SHARER HIST TOTAL:      357138112
LLC SHARER HIST[ 1]:       63783153  (17.860%)
LLC SHARER HIST[ 2]:      121369212  (33.984%)
LLC SHARER HIST[ 3]:       28758530  ( 8.052%)
LLC SHARER HIST[ 4]:      139131613  (38.957%)
LLC SHARER HIST[ 6]:         104836  ( 0.029%)
LLC SHARER HIST[ 7]:          94000  ( 0.026%)
LLC SHARER HIST[ 8]:         264189  ( 0.074%)
LLC SHARER HIST[ 9]:          65030  ( 0.018%)
LLC SHARER HIST[10]:         264021  ( 0.074%)
LLC SHARER HIST[11]:          21606  ( 0.006%)
LLC SHARER HIST[12]:         271335  ( 0.076%)
LLC SHARER HIST[13]:          57378  ( 0.016%)
LLC SHARER HIST[14]:         530844  ( 0.149%)
LLC SHARER HIST[15]:         445445  ( 0.125%)
LLC SHARER HIST[16]:        1976920  ( 0.554%)

DRAM Statistics

Channel 0 RQ ROW_BUFFER_HIT:     509680
  ROW_BUFFER_MISS:   15195076
  AVG DBUS CONGESTED CYCLE: 7.259
Channel 0 WQ ROW_BUFFER_HIT:     803627
  ROW_BUFFER_MISS:    5680945
  FULL:      20719
Channel 0 REFRESHES ISSUED:      55232

VMEM ALIASED FILLS (cross-CPU shared-page hits): 383657
