[VMEM] WARNING: physical memory size is smaller than virtual memory size.

*** ChampSim Multicore Out-of-Order Simulator ***
Warmup Instructions: 50000000
Simulation Instructions: 100000000
Number of CPUs: 16
Page size: 4096

Off-chip DRAM Size: 16 GiB Channels: 1 Width: 64-bit Data Rate: 3205 MT/s
Heartbeat CPU 4 instructions: 10000001 cycles: 2508565 heartbeat IPC: 3.986 cumulative IPC: 3.986 (Simulation time: 00 hr 17 min 47 sec)
Heartbeat CPU 13 instructions: 10000003 cycles: 2508660 heartbeat IPC: 3.986 cumulative IPC: 3.986 (Simulation time: 00 hr 17 min 47 sec)
Heartbeat CPU 5 instructions: 10000003 cycles: 2508682 heartbeat IPC: 3.986 cumulative IPC: 3.986 (Simulation time: 00 hr 17 min 47 sec)
Heartbeat CPU 12 instructions: 10000001 cycles: 2508754 heartbeat IPC: 3.986 cumulative IPC: 3.986 (Simulation time: 00 hr 17 min 47 sec)
Heartbeat CPU 11 instructions: 10000003 cycles: 2508780 heartbeat IPC: 3.986 cumulative IPC: 3.986 (Simulation time: 00 hr 17 min 47 sec)
Heartbeat CPU 3 instructions: 10000003 cycles: 2508781 heartbeat IPC: 3.986 cumulative IPC: 3.986 (Simulation time: 00 hr 17 min 47 sec)
Heartbeat CPU 6 instructions: 10000002 cycles: 2509008 heartbeat IPC: 3.986 cumulative IPC: 3.986 (Simulation time: 00 hr 17 min 47 sec)
Heartbeat CPU 14 instructions: 10000002 cycles: 2509009 heartbeat IPC: 3.986 cumulative IPC: 3.986 (Simulation time: 00 hr 17 min 47 sec)
Heartbeat CPU 7 instructions: 10000002 cycles: 2509057 heartbeat IPC: 3.986 cumulative IPC: 3.986 (Simulation time: 00 hr 17 min 48 sec)
Heartbeat CPU 15 instructions: 10000003 cycles: 2509122 heartbeat IPC: 3.985 cumulative IPC: 3.985 (Simulation time: 00 hr 17 min 48 sec)
Heartbeat CPU 2 instructions: 10000003 cycles: 2509620 heartbeat IPC: 3.985 cumulative IPC: 3.985 (Simulation time: 00 hr 17 min 48 sec)
Heartbeat CPU 10 instructions: 10000003 cycles: 2509812 heartbeat IPC: 3.984 cumulative IPC: 3.984 (Simulation time: 00 hr 17 min 48 sec)
Heartbeat CPU 1 instructions: 10000001 cycles: 4557445 heartbeat IPC: 2.194 cumulative IPC: 2.194 (Simulation time: 00 hr 31 min 19 sec)
Heartbeat CPU 9 instructions: 10000001 cycles: 4557590 heartbeat IPC: 2.194 cumulative IPC: 2.194 (Simulation time: 00 hr 31 min 19 sec)
Heartbeat CPU 4 instructions: 20000004 cycles: 5008910 heartbeat IPC: 3.999 cumulative IPC: 3.993 (Simulation time: 00 hr 34 min 04 sec)
Heartbeat CPU 11 instructions: 20000006 cycles: 5008994 heartbeat IPC: 4 cumulative IPC: 3.993 (Simulation time: 00 hr 34 min 04 sec)
Heartbeat CPU 13 instructions: 20000006 cycles: 5008995 heartbeat IPC: 3.999 cumulative IPC: 3.993 (Simulation time: 00 hr 34 min 04 sec)
Heartbeat CPU 3 instructions: 20000006 cycles: 5008995 heartbeat IPC: 4 cumulative IPC: 3.993 (Simulation time: 00 hr 34 min 04 sec)
Heartbeat CPU 5 instructions: 20000005 cycles: 5009022 heartbeat IPC: 3.999 cumulative IPC: 3.993 (Simulation time: 00 hr 34 min 04 sec)
Heartbeat CPU 12 instructions: 20000004 cycles: 5009099 heartbeat IPC: 3.999 cumulative IPC: 3.993 (Simulation time: 00 hr 34 min 04 sec)
Heartbeat CPU 6 instructions: 20000005 cycles: 5009228 heartbeat IPC: 4 cumulative IPC: 3.993 (Simulation time: 00 hr 34 min 05 sec)
Heartbeat CPU 14 instructions: 20000005 cycles: 5009230 heartbeat IPC: 4 cumulative IPC: 3.993 (Simulation time: 00 hr 34 min 05 sec)
Heartbeat CPU 7 instructions: 20000004 cycles: 5009273 heartbeat IPC: 4 cumulative IPC: 3.993 (Simulation time: 00 hr 34 min 05 sec)
Heartbeat CPU 15 instructions: 20000003 cycles: 5009340 heartbeat IPC: 4 cumulative IPC: 3.993 (Simulation time: 00 hr 34 min 05 sec)
Heartbeat CPU 2 instructions: 20000003 cycles: 5010460 heartbeat IPC: 3.999 cumulative IPC: 3.992 (Simulation time: 00 hr 34 min 05 sec)
Heartbeat CPU 10 instructions: 20000003 cycles: 5010646 heartbeat IPC: 3.999 cumulative IPC: 3.992 (Simulation time: 00 hr 34 min 05 sec)
Heartbeat CPU 4 instructions: 30000004 cycles: 7508910 heartbeat IPC: 4 cumulative IPC: 3.995 (Simulation time: 00 hr 51 min 44 sec)
Heartbeat CPU 11 instructions: 30000006 cycles: 7508994 heartbeat IPC: 4 cumulative IPC: 3.995 (Simulation time: 00 hr 51 min 44 sec)
Heartbeat CPU 13 instructions: 30000006 cycles: 7508995 heartbeat IPC: 4 cumulative IPC: 3.995 (Simulation time: 00 hr 51 min 44 sec)
Heartbeat CPU 3 instructions: 30000006 cycles: 7508995 heartbeat IPC: 4 cumulative IPC: 3.995 (Simulation time: 00 hr 51 min 44 sec)
Heartbeat CPU 5 instructions: 30000005 cycles: 7509022 heartbeat IPC: 4 cumulative IPC: 3.995 (Simulation time: 00 hr 51 min 44 sec)
Heartbeat CPU 12 instructions: 30000004 cycles: 7509099 heartbeat IPC: 4 cumulative IPC: 3.995 (Simulation time: 00 hr 51 min 44 sec)
Heartbeat CPU 6 instructions: 30000005 cycles: 7509228 heartbeat IPC: 4 cumulative IPC: 3.995 (Simulation time: 00 hr 51 min 44 sec)
Heartbeat CPU 14 instructions: 30000005 cycles: 7509230 heartbeat IPC: 4 cumulative IPC: 3.995 (Simulation time: 00 hr 51 min 44 sec)
Heartbeat CPU 7 instructions: 30000004 cycles: 7509273 heartbeat IPC: 4 cumulative IPC: 3.995 (Simulation time: 00 hr 51 min 44 sec)
Heartbeat CPU 15 instructions: 30000003 cycles: 7509340 heartbeat IPC: 4 cumulative IPC: 3.995 (Simulation time: 00 hr 51 min 44 sec)
Heartbeat CPU 2 instructions: 30000003 cycles: 7510460 heartbeat IPC: 4 cumulative IPC: 3.994 (Simulation time: 00 hr 51 min 45 sec)
Heartbeat CPU 10 instructions: 30000003 cycles: 7510646 heartbeat IPC: 4 cumulative IPC: 3.994 (Simulation time: 00 hr 51 min 45 sec)
Heartbeat CPU 9 instructions: 20000004 cycles: 8995724 heartbeat IPC: 2.253 cumulative IPC: 2.223 (Simulation time: 01 hr 01 min 49 sec)
Heartbeat CPU 1 instructions: 20000003 cycles: 8995731 heartbeat IPC: 2.253 cumulative IPC: 2.223 (Simulation time: 01 hr 01 min 49 sec)
Heartbeat CPU 4 instructions: 40000004 cycles: 10008910 heartbeat IPC: 4 cumulative IPC: 3.996 (Simulation time: 01 hr 09 min 28 sec)
Heartbeat CPU 11 instructions: 40000006 cycles: 10008994 heartbeat IPC: 4 cumulative IPC: 3.996 (Simulation time: 01 hr 09 min 28 sec)
Heartbeat CPU 13 instructions: 40000006 cycles: 10008995 heartbeat IPC: 4 cumulative IPC: 3.996 (Simulation time: 01 hr 09 min 28 sec)
Heartbeat CPU 3 instructions: 40000006 cycles: 10008995 heartbeat IPC: 4 cumulative IPC: 3.996 (Simulation time: 01 hr 09 min 28 sec)
Heartbeat CPU 5 instructions: 40000005 cycles: 10009022 heartbeat IPC: 4 cumulative IPC: 3.996 (Simulation time: 01 hr 09 min 28 sec)
Heartbeat CPU 12 instructions: 40000004 cycles: 10009099 heartbeat IPC: 4 cumulative IPC: 3.996 (Simulation time: 01 hr 09 min 28 sec)
Heartbeat CPU 6 instructions: 40000005 cycles: 10009228 heartbeat IPC: 4 cumulative IPC: 3.996 (Simulation time: 01 hr 09 min 28 sec)
Heartbeat CPU 14 instructions: 40000005 cycles: 10009230 heartbeat IPC: 4 cumulative IPC: 3.996 (Simulation time: 01 hr 09 min 28 sec)
Heartbeat CPU 7 instructions: 40000004 cycles: 10009273 heartbeat IPC: 4 cumulative IPC: 3.996 (Simulation time: 01 hr 09 min 28 sec)
Heartbeat CPU 15 instructions: 40000003 cycles: 10009340 heartbeat IPC: 4 cumulative IPC: 3.996 (Simulation time: 01 hr 09 min 28 sec)
Heartbeat CPU 2 instructions: 40000003 cycles: 10010460 heartbeat IPC: 4 cumulative IPC: 3.996 (Simulation time: 01 hr 09 min 29 sec)
Heartbeat CPU 10 instructions: 40000003 cycles: 10010646 heartbeat IPC: 4 cumulative IPC: 3.996 (Simulation time: 01 hr 09 min 29 sec)
*** Reached end of trace: (2, "/home/harshraj/COALESCE-Hashed-Perceptron-Cache-Replacement-Policy/simulator/traces/ocean_8t/ocean2.champsimtrace")
*** Reached end of trace: (10, "/home/harshraj/COALESCE-Hashed-Perceptron-Cache-Replacement-Policy/simulator/traces/ocean_8t/ocean2.champsimtrace")
*** Reached end of trace: (13, "/home/harshraj/COALESCE-Hashed-Perceptron-Cache-Replacement-Policy/simulator/traces/ocean_8t/ocean5.champsimtrace")
*** Reached end of trace: (5, "/home/harshraj/COALESCE-Hashed-Perceptron-Cache-Replacement-Policy/simulator/traces/ocean_8t/ocean5.champsimtrace")
*** Reached end of trace: (4, "/home/harshraj/COALESCE-Hashed-Perceptron-Cache-Replacement-Policy/simulator/traces/ocean_8t/ocean4.champsimtrace")
*** Reached end of trace: (12, "/home/harshraj/COALESCE-Hashed-Perceptron-Cache-Replacement-Policy/simulator/traces/ocean_8t/ocean4.champsimtrace")
*** Reached end of trace: (6, "/home/harshraj/COALESCE-Hashed-Perceptron-Cache-Replacement-Policy/simulator/traces/ocean_8t/ocean6.champsimtrace")
*** Reached end of trace: (14, "/home/harshraj/COALESCE-Hashed-Perceptron-Cache-Replacement-Policy/simulator/traces/ocean_8t/ocean6.champsimtrace")
*** Reached end of trace: (11, "/home/harshraj/COALESCE-Hashed-Perceptron-Cache-Replacement-Policy/simulator/traces/ocean_8t/ocean3.champsimtrace")
*** Reached end of trace: (3, "/home/harshraj/COALESCE-Hashed-Perceptron-Cache-Replacement-Policy/simulator/traces/ocean_8t/ocean3.champsimtrace")
*** Reached end of trace: (7, "/home/harshraj/COALESCE-Hashed-Perceptron-Cache-Replacement-Policy/simulator/traces/ocean_8t/ocean7.champsimtrace")
*** Reached end of trace: (15, "/home/harshraj/COALESCE-Hashed-Perceptron-Cache-Replacement-Policy/simulator/traces/ocean_8t/ocean7.champsimtrace")
Warmup finished CPU 4 instructions: 50000002 cycles: 12510913 cumulative IPC: 3.997 (Simulation time: 01 hr 26 min 52 sec)
Heartbeat CPU 4 instructions: 50000006 cycles: 12510914 heartbeat IPC: 3.997 cumulative IPC: 3.997 (Simulation time: 01 hr 26 min 52 sec)
Warmup finished CPU 11 instructions: 50000000 cycles: 12510993 cumulative IPC: 3.996 (Simulation time: 01 hr 26 min 52 sec)
Warmup finished CPU 3 instructions: 50000000 cycles: 12510994 cumulative IPC: 3.996 (Simulation time: 01 hr 26 min 52 sec)
Heartbeat CPU 11 instructions: 50000008 cycles: 12510995 heartbeat IPC: 3.997 cumulative IPC: 3.996 (Simulation time: 01 hr 26 min 52 sec)
Heartbeat CPU 3 instructions: 50000008 cycles: 12510996 heartbeat IPC: 3.997 cumulative IPC: 3.996 (Simulation time: 01 hr 26 min 52 sec)
Warmup finished CPU 13 instructions: 50000001 cycles: 12510996 cumulative IPC: 3.996 (Simulation time: 01 hr 26 min 52 sec)
Heartbeat CPU 13 instructions: 50000009 cycles: 12510998 heartbeat IPC: 3.997 cumulative IPC: 3.996 (Simulation time: 01 hr 26 min 52 sec)
Warmup finished CPU 5 instructions: 50000001 cycles: 12511028 cumulative IPC: 3.996 (Simulation time: 01 hr 26 min 52 sec)
Heartbeat CPU 5 instructions: 50000005 cycles: 12511029 heartbeat IPC: 3.997 cumulative IPC: 3.996 (Simulation time: 01 hr 26 min 52 sec)
Warmup finished CPU 12 instructions: 50000002 cycles: 12511102 cumulative IPC: 3.996 (Simulation time: 01 hr 26 min 52 sec)
Heartbeat CPU 12 instructions: 50000006 cycles: 12511103 heartbeat IPC: 3.997 cumulative IPC: 3.996 (Simulation time: 01 hr 26 min 52 sec)
Warmup finished CPU 14 instructions: 50000002 cycles: 12511231 cumulative IPC: 3.996 (Simulation time: 01 hr 26 min 52 sec)
Heartbeat CPU 14 instructions: 50000006 cycles: 12511232 heartbeat IPC: 3.997 cumulative IPC: 3.996 (Simulation time: 01 hr 26 min 52 sec)
Warmup finished CPU 6 instructions: 50000002 cycles: 12511235 cumulative IPC: 3.996 (Simulation time: 01 hr 26 min 52 sec)
Heartbeat CPU 6 instructions: 50000006 cycles: 12511236 heartbeat IPC: 3.997 cumulative IPC: 3.996 (Simulation time: 01 hr 26 min 52 sec)
Warmup finished CPU 7 instructions: 50000003 cycles: 12511253 cumulative IPC: 3.996 (Simulation time: 01 hr 26 min 52 sec)
Heartbeat CPU 7 instructions: 50000007 cycles: 12511254 heartbeat IPC: 3.997 cumulative IPC: 3.996 (Simulation time: 01 hr 26 min 52 sec)
Heartbeat CPU 15 instructions: 50000003 cycles: 12511340 heartbeat IPC: 3.997 cumulative IPC: 3.996 (Simulation time: 01 hr 26 min 52 sec)
Warmup finished CPU 15 instructions: 50000003 cycles: 12511340 cumulative IPC: 3.996 (Simulation time: 01 hr 26 min 52 sec)
Warmup finished CPU 2 instructions: 50000002 cycles: 12512865 cumulative IPC: 3.996 (Simulation time: 01 hr 26 min 52 sec)
Heartbeat CPU 2 instructions: 50000006 cycles: 12512866 heartbeat IPC: 3.996 cumulative IPC: 3.996 (Simulation time: 01 hr 26 min 52 sec)
Warmup finished CPU 10 instructions: 50000002 cycles: 12513048 cumulative IPC: 3.996 (Simulation time: 01 hr 26 min 53 sec)
Heartbeat CPU 10 instructions: 50000006 cycles: 12513049 heartbeat IPC: 3.996 cumulative IPC: 3.996 (Simulation time: 01 hr 26 min 53 sec)
Heartbeat CPU 1 instructions: 30000006 cycles: 14297238 heartbeat IPC: 1.886 cumulative IPC: 2.098 (Simulation time: 01 hr 39 min 09 sec)
Heartbeat CPU 9 instructions: 30000006 cycles: 14297238 heartbeat IPC: 1.886 cumulative IPC: 2.098 (Simulation time: 01 hr 39 min 09 sec)
Heartbeat CPU 4 instructions: 60000006 cycles: 15010914 heartbeat IPC: 4 cumulative IPC: 3.997 (Simulation time: 01 hr 43 min 54 sec)
Heartbeat CPU 11 instructions: 60000008 cycles: 15010995 heartbeat IPC: 4 cumulative IPC: 3.997 (Simulation time: 01 hr 43 min 54 sec)
Heartbeat CPU 3 instructions: 60000008 cycles: 15010996 heartbeat IPC: 4 cumulative IPC: 3.997 (Simulation time: 01 hr 43 min 54 sec)
Heartbeat CPU 13 instructions: 60000009 cycles: 15010998 heartbeat IPC: 4 cumulative IPC: 3.997 (Simulation time: 01 hr 43 min 54 sec)
Heartbeat CPU 5 instructions: 60000005 cycles: 15011029 heartbeat IPC: 4 cumulative IPC: 3.997 (Simulation time: 01 hr 43 min 54 sec)
Heartbeat CPU 12 instructions: 60000006 cycles: 15011103 heartbeat IPC: 4 cumulative IPC: 3.997 (Simulation time: 01 hr 43 min 54 sec)
Heartbeat CPU 14 instructions: 60000006 cycles: 15011232 heartbeat IPC: 4 cumulative IPC: 3.997 (Simulation time: 01 hr 43 min 54 sec)
Heartbeat CPU 6 instructions: 60000006 cycles: 15011236 heartbeat IPC: 4 cumulative IPC: 3.997 (Simulation time: 01 hr 43 min 54 sec)
Heartbeat CPU 7 instructions: 60000007 cycles: 15011254 heartbeat IPC: 4 cumulative IPC: 3.997 (Simulation time: 01 hr 43 min 54 sec)
Heartbeat CPU 15 instructions: 60000003 cycles: 15011340 heartbeat IPC: 4 cumulative IPC: 3.997 (Simulation time: 01 hr 43 min 54 sec)
Heartbeat CPU 2 instructions: 60000006 cycles: 15012866 heartbeat IPC: 4 cumulative IPC: 3.997 (Simulation time: 01 hr 43 min 54 sec)
Heartbeat CPU 10 instructions: 60000006 cycles: 15013049 heartbeat IPC: 4 cumulative IPC: 3.997 (Simulation time: 01 hr 43 min 55 sec)
Heartbeat CPU 4 instructions: 70000006 cycles: 17510914 heartbeat IPC: 4 cumulative IPC: 3.998 (Simulation time: 02 hr 00 min 48 sec)
Heartbeat CPU 11 instructions: 70000008 cycles: 17510995 heartbeat IPC: 4 cumulative IPC: 3.997 (Simulation time: 02 hr 00 min 48 sec)
Heartbeat CPU 3 instructions: 70000008 cycles: 17510996 heartbeat IPC: 4 cumulative IPC: 3.997 (Simulation time: 02 hr 00 min 48 sec)
Heartbeat CPU 13 instructions: 70000009 cycles: 17510998 heartbeat IPC: 4 cumulative IPC: 3.997 (Simulation time: 02 hr 00 min 48 sec)
Heartbeat CPU 5 instructions: 70000005 cycles: 17511029 heartbeat IPC: 4 cumulative IPC: 3.997 (Simulation time: 02 hr 00 min 48 sec)
Heartbeat CPU 12 instructions: 70000006 cycles: 17511103 heartbeat IPC: 4 cumulative IPC: 3.997 (Simulation time: 02 hr 00 min 48 sec)
Heartbeat CPU 14 instructions: 70000006 cycles: 17511232 heartbeat IPC: 4 cumulative IPC: 3.997 (Simulation time: 02 hr 00 min 48 sec)
Heartbeat CPU 6 instructions: 70000006 cycles: 17511236 heartbeat IPC: 4 cumulative IPC: 3.997 (Simulation time: 02 hr 00 min 48 sec)
Heartbeat CPU 7 instructions: 70000007 cycles: 17511254 heartbeat IPC: 4 cumulative IPC: 3.997 (Simulation time: 02 hr 00 min 48 sec)
Heartbeat CPU 15 instructions: 70000003 cycles: 17511340 heartbeat IPC: 4 cumulative IPC: 3.997 (Simulation time: 02 hr 00 min 49 sec)
Heartbeat CPU 2 instructions: 70000006 cycles: 17512866 heartbeat IPC: 4 cumulative IPC: 3.997 (Simulation time: 02 hr 00 min 49 sec)
Heartbeat CPU 10 instructions: 70000006 cycles: 17513049 heartbeat IPC: 4 cumulative IPC: 3.997 (Simulation time: 02 hr 00 min 49 sec)
Heartbeat CPU 9 instructions: 40000007 cycles: 18528990 heartbeat IPC: 2.363 cumulative IPC: 2.159 (Simulation time: 02 hr 07 min 52 sec)
Heartbeat CPU 1 instructions: 40000007 cycles: 18528992 heartbeat IPC: 2.363 cumulative IPC: 2.159 (Simulation time: 02 hr 07 min 52 sec)
Heartbeat CPU 4 instructions: 80000006 cycles: 20010914 heartbeat IPC: 4 cumulative IPC: 3.998 (Simulation time: 02 hr 17 min 19 sec)
Heartbeat CPU 11 instructions: 80000008 cycles: 20010995 heartbeat IPC: 4 cumulative IPC: 3.998 (Simulation time: 02 hr 17 min 19 sec)
Heartbeat CPU 3 instructions: 80000008 cycles: 20010996 heartbeat IPC: 4 cumulative IPC: 3.998 (Simulation time: 02 hr 17 min 19 sec)
Heartbeat CPU 13 instructions: 80000009 cycles: 20010998 heartbeat IPC: 4 cumulative IPC: 3.998 (Simulation time: 02 hr 17 min 19 sec)
Heartbeat CPU 5 instructions: 80000005 cycles: 20011029 heartbeat IPC: 4 cumulative IPC: 3.998 (Simulation time: 02 hr 17 min 19 sec)
Heartbeat CPU 12 instructions: 80000006 cycles: 20011103 heartbeat IPC: 4 cumulative IPC: 3.998 (Simulation time: 02 hr 17 min 19 sec)
Heartbeat CPU 14 instructions: 80000006 cycles: 20011232 heartbeat IPC: 4 cumulative IPC: 3.998 (Simulation time: 02 hr 17 min 19 sec)
Heartbeat CPU 6 instructions: 80000006 cycles: 20011236 heartbeat IPC: 4 cumulative IPC: 3.998 (Simulation time: 02 hr 17 min 19 sec)
Heartbeat CPU 7 instructions: 80000007 cycles: 20011254 heartbeat IPC: 4 cumulative IPC: 3.998 (Simulation time: 02 hr 17 min 19 sec)
Heartbeat CPU 15 instructions: 80000003 cycles: 20011340 heartbeat IPC: 4 cumulative IPC: 3.998 (Simulation time: 02 hr 17 min 19 sec)
Heartbeat CPU 2 instructions: 80000006 cycles: 20012866 heartbeat IPC: 4 cumulative IPC: 3.997 (Simulation time: 02 hr 17 min 20 sec)
Heartbeat CPU 10 instructions: 80000006 cycles: 20013049 heartbeat IPC: 4 cumulative IPC: 3.997 (Simulation time: 02 hr 17 min 20 sec)
*** Reached end of trace: (9, "/home/harshraj/COALESCE-Hashed-Perceptron-Cache-Replacement-Policy/simulator/traces/ocean_8t/ocean1.champsimtrace")
*** Reached end of trace: (1, "/home/harshraj/COALESCE-Hashed-Perceptron-Cache-Replacement-Policy/simulator/traces/ocean_8t/ocean1.champsimtrace")
Heartbeat CPU 0 instructions: 10000000 cycles: 20618813 heartbeat IPC: 0.485 cumulative IPC: 0.485 (Simulation time: 02 hr 21 min 13 sec)
Heartbeat CPU 8 instructions: 10000000 cycles: 20618987 heartbeat IPC: 0.485 cumulative IPC: 0.485 (Simulation time: 02 hr 21 min 13 sec)
Warmup finished CPU 1 instructions: 50000000 cycles: 22407991 cumulative IPC: 2.231 (Simulation time: 02 hr 33 min 18 sec)
Heartbeat CPU 1 instructions: 50000010 cycles: 22407994 heartbeat IPC: 2.578 cumulative IPC: 2.231 (Simulation time: 02 hr 33 min 18 sec)
Warmup finished CPU 9 instructions: 50000002 cycles: 22408853 cumulative IPC: 2.231 (Simulation time: 02 hr 33 min 19 sec)
Heartbeat CPU 9 instructions: 50000010 cycles: 22408856 heartbeat IPC: 2.577 cumulative IPC: 2.231 (Simulation time: 02 hr 33 min 19 sec)
Heartbeat CPU 4 instructions: 90000006 cycles: 22510914 heartbeat IPC: 4 cumulative IPC: 3.998 (Simulation time: 02 hr 34 min 00 sec)
Heartbeat CPU 11 instructions: 90000008 cycles: 22510995 heartbeat IPC: 4 cumulative IPC: 3.998 (Simulation time: 02 hr 34 min 00 sec)
Heartbeat CPU 3 instructions: 90000008 cycles: 22510996 heartbeat IPC: 4 cumulative IPC: 3.998 (Simulation time: 02 hr 34 min 00 sec)
Heartbeat CPU 13 instructions: 90000009 cycles: 22510998 heartbeat IPC: 4 cumulative IPC: 3.998 (Simulation time: 02 hr 34 min 00 sec)
Heartbeat CPU 5 instructions: 90000005 cycles: 22511029 heartbeat IPC: 4 cumulative IPC: 3.998 (Simulation time: 02 hr 34 min 00 sec)
Heartbeat CPU 12 instructions: 90000006 cycles: 22511103 heartbeat IPC: 4 cumulative IPC: 3.998 (Simulation time: 02 hr 34 min 00 sec)
Heartbeat CPU 14 instructions: 90000006 cycles: 22511232 heartbeat IPC: 4 cumulative IPC: 3.998 (Simulation time: 02 hr 34 min 00 sec)
Heartbeat CPU 6 instructions: 90000006 cycles: 22511236 heartbeat IPC: 4 cumulative IPC: 3.998 (Simulation time: 02 hr 34 min 00 sec)
Heartbeat CPU 7 instructions: 90000007 cycles: 22511254 heartbeat IPC: 4 cumulative IPC: 3.998 (Simulation time: 02 hr 34 min 00 sec)
Heartbeat CPU 15 instructions: 90000003 cycles: 22511340 heartbeat IPC: 4 cumulative IPC: 3.998 (Simulation time: 02 hr 34 min 00 sec)
Heartbeat CPU 2 instructions: 90000006 cycles: 22512866 heartbeat IPC: 4 cumulative IPC: 3.998 (Simulation time: 02 hr 34 min 00 sec)
Heartbeat CPU 10 instructions: 90000006 cycles: 22513049 heartbeat IPC: 4 cumulative IPC: 3.998 (Simulation time: 02 hr 34 min 00 sec)
*** Reached end of trace: (2, "/home/harshraj/COALESCE-Hashed-Perceptron-Cache-Replacement-Policy/simulator/traces/ocean_8t/ocean2.champsimtrace")
*** Reached end of trace: (10, "/home/harshraj/COALESCE-Hashed-Perceptron-Cache-Replacement-Policy/simulator/traces/ocean_8t/ocean2.champsimtrace")
*** Reached end of trace: (13, "/home/harshraj/COALESCE-Hashed-Perceptron-Cache-Replacement-Policy/simulator/traces/ocean_8t/ocean5.champsimtrace")
*** Reached end of trace: (5, "/home/harshraj/COALESCE-Hashed-Perceptron-Cache-Replacement-Policy/simulator/traces/ocean_8t/ocean5.champsimtrace")
*** Reached end of trace: (4, "/home/harshraj/COALESCE-Hashed-Perceptron-Cache-Replacement-Policy/simulator/traces/ocean_8t/ocean4.champsimtrace")
*** Reached end of trace: (12, "/home/harshraj/COALESCE-Hashed-Perceptron-Cache-Replacement-Policy/simulator/traces/ocean_8t/ocean4.champsimtrace")
*** Reached end of trace: (14, "/home/harshraj/COALESCE-Hashed-Perceptron-Cache-Replacement-Policy/simulator/traces/ocean_8t/ocean6.champsimtrace")
*** Reached end of trace: (6, "/home/harshraj/COALESCE-Hashed-Perceptron-Cache-Replacement-Policy/simulator/traces/ocean_8t/ocean6.champsimtrace")
*** Reached end of trace: (11, "/home/harshraj/COALESCE-Hashed-Perceptron-Cache-Replacement-Policy/simulator/traces/ocean_8t/ocean3.champsimtrace")
*** Reached end of trace: (3, "/home/harshraj/COALESCE-Hashed-Perceptron-Cache-Replacement-Policy/simulator/traces/ocean_8t/ocean3.champsimtrace")
*** Reached end of trace: (7, "/home/harshraj/COALESCE-Hashed-Perceptron-Cache-Replacement-Policy/simulator/traces/ocean_8t/ocean7.champsimtrace")
*** Reached end of trace: (15, "/home/harshraj/COALESCE-Hashed-Perceptron-Cache-Replacement-Policy/simulator/traces/ocean_8t/ocean7.champsimtrace")
Heartbeat CPU 4 instructions: 100000006 cycles: 25010914 heartbeat IPC: 4 cumulative IPC: 3.998 (Simulation time: 02 hr 51 min 17 sec)
Heartbeat CPU 11 instructions: 100000008 cycles: 25010995 heartbeat IPC: 4 cumulative IPC: 3.998 (Simulation time: 02 hr 51 min 17 sec)
Heartbeat CPU 3 instructions: 100000008 cycles: 25010996 heartbeat IPC: 4 cumulative IPC: 3.998 (Simulation time: 02 hr 51 min 17 sec)
Heartbeat CPU 13 instructions: 100000009 cycles: 25010998 heartbeat IPC: 4 cumulative IPC: 3.998 (Simulation time: 02 hr 51 min 17 sec)
Heartbeat CPU 5 instructions: 100000005 cycles: 25011029 heartbeat IPC: 4 cumulative IPC: 3.998 (Simulation time: 02 hr 51 min 17 sec)
Heartbeat CPU 12 instructions: 100000006 cycles: 25011103 heartbeat IPC: 4 cumulative IPC: 3.998 (Simulation time: 02 hr 51 min 17 sec)
Heartbeat CPU 14 instructions: 100000006 cycles: 25011232 heartbeat IPC: 4 cumulative IPC: 3.998 (Simulation time: 02 hr 51 min 17 sec)
Heartbeat CPU 6 instructions: 100000006 cycles: 25011236 heartbeat IPC: 4 cumulative IPC: 3.998 (Simulation time: 02 hr 51 min 17 sec)
Heartbeat CPU 7 instructions: 100000007 cycles: 25011254 heartbeat IPC: 4 cumulative IPC: 3.998 (Simulation time: 02 hr 51 min 17 sec)
Heartbeat CPU 15 instructions: 100000003 cycles: 25011340 heartbeat IPC: 4 cumulative IPC: 3.998 (Simulation time: 02 hr 51 min 17 sec)
Heartbeat CPU 2 instructions: 100000006 cycles: 25012866 heartbeat IPC: 4 cumulative IPC: 3.998 (Simulation time: 02 hr 51 min 18 sec)
Heartbeat CPU 10 instructions: 100000006 cycles: 25013049 heartbeat IPC: 4 cumulative IPC: 3.998 (Simulation time: 02 hr 51 min 18 sec)
Heartbeat CPU 1 instructions: 60000013 cycles: 26506856 heartbeat IPC: 2.44 cumulative IPC: 2.264 (Simulation time: 03 hr 01 min 28 sec)
Heartbeat CPU 9 instructions: 60000013 cycles: 26509790 heartbeat IPC: 2.438 cumulative IPC: 2.263 (Simulation time: 03 hr 01 min 30 sec)
Heartbeat CPU 4 instructions: 110000006 cycles: 27510914 heartbeat IPC: 4 cumulative IPC: 3.998 (Simulation time: 03 hr 08 min 03 sec)
Heartbeat CPU 11 instructions: 110000008 cycles: 27510995 heartbeat IPC: 4 cumulative IPC: 3.998 (Simulation time: 03 hr 08 min 03 sec)
Heartbeat CPU 3 instructions: 110000008 cycles: 27510996 heartbeat IPC: 4 cumulative IPC: 3.998 (Simulation time: 03 hr 08 min 03 sec)
Heartbeat CPU 13 instructions: 110000009 cycles: 27510998 heartbeat IPC: 4 cumulative IPC: 3.998 (Simulation time: 03 hr 08 min 03 sec)
Heartbeat CPU 5 instructions: 110000005 cycles: 27511029 heartbeat IPC: 4 cumulative IPC: 3.998 (Simulation time: 03 hr 08 min 03 sec)
Heartbeat CPU 12 instructions: 110000006 cycles: 27511103 heartbeat IPC: 4 cumulative IPC: 3.998 (Simulation time: 03 hr 08 min 03 sec)
Heartbeat CPU 14 instructions: 110000006 cycles: 27511232 heartbeat IPC: 4 cumulative IPC: 3.998 (Simulation time: 03 hr 08 min 04 sec)
Heartbeat CPU 6 instructions: 110000006 cycles: 27511236 heartbeat IPC: 4 cumulative IPC: 3.998 (Simulation time: 03 hr 08 min 04 sec)
Heartbeat CPU 7 instructions: 110000007 cycles: 27511254 heartbeat IPC: 4 cumulative IPC: 3.998 (Simulation time: 03 hr 08 min 04 sec)
Heartbeat CPU 15 instructions: 110000003 cycles: 27511340 heartbeat IPC: 4 cumulative IPC: 3.998 (Simulation time: 03 hr 08 min 04 sec)
Heartbeat CPU 2 instructions: 110000006 cycles: 27512866 heartbeat IPC: 4 cumulative IPC: 3.998 (Simulation time: 03 hr 08 min 04 sec)
Heartbeat CPU 10 instructions: 110000006 cycles: 27513049 heartbeat IPC: 4 cumulative IPC: 3.998 (Simulation time: 03 hr 08 min 04 sec)
Heartbeat CPU 4 instructions: 120000006 cycles: 30010914 heartbeat IPC: 4 cumulative IPC: 3.999 (Simulation time: 03 hr 24 min 42 sec)
Heartbeat CPU 11 instructions: 120000008 cycles: 30010995 heartbeat IPC: 4 cumulative IPC: 3.999 (Simulation time: 03 hr 24 min 42 sec)
Heartbeat CPU 3 instructions: 120000008 cycles: 30010996 heartbeat IPC: 4 cumulative IPC: 3.999 (Simulation time: 03 hr 24 min 42 sec)
Heartbeat CPU 13 instructions: 120000009 cycles: 30010998 heartbeat IPC: 4 cumulative IPC: 3.999 (Simulation time: 03 hr 24 min 42 sec)
Heartbeat CPU 5 instructions: 120000005 cycles: 30011029 heartbeat IPC: 4 cumulative IPC: 3.999 (Simulation time: 03 hr 24 min 42 sec)
Heartbeat CPU 12 instructions: 120000006 cycles: 30011103 heartbeat IPC: 4 cumulative IPC: 3.999 (Simulation time: 03 hr 24 min 42 sec)
Heartbeat CPU 14 instructions: 120000006 cycles: 30011232 heartbeat IPC: 4 cumulative IPC: 3.999 (Simulation time: 03 hr 24 min 42 sec)
Heartbeat CPU 6 instructions: 120000006 cycles: 30011236 heartbeat IPC: 4 cumulative IPC: 3.999 (Simulation time: 03 hr 24 min 42 sec)
Heartbeat CPU 7 instructions: 120000007 cycles: 30011254 heartbeat IPC: 4 cumulative IPC: 3.999 (Simulation time: 03 hr 24 min 42 sec)
Heartbeat CPU 15 instructions: 120000003 cycles: 30011340 heartbeat IPC: 4 cumulative IPC: 3.998 (Simulation time: 03 hr 24 min 42 sec)
Heartbeat CPU 2 instructions: 120000006 cycles: 30012866 heartbeat IPC: 4 cumulative IPC: 3.998 (Simulation time: 03 hr 24 min 43 sec)
Heartbeat CPU 10 instructions: 120000006 cycles: 30013049 heartbeat IPC: 4 cumulative IPC: 3.998 (Simulation time: 03 hr 24 min 43 sec)
Heartbeat CPU 9 instructions: 70000013 cycles: 30673177 heartbeat IPC: 2.402 cumulative IPC: 2.282 (Simulation time: 03 hr 29 min 28 sec)
Heartbeat CPU 1 instructions: 70000013 cycles: 30673178 heartbeat IPC: 2.4 cumulative IPC: 2.282 (Simulation time: 03 hr 29 min 28 sec)
Heartbeat CPU 4 instructions: 130000006 cycles: 32510914 heartbeat IPC: 4 cumulative IPC: 3.999 (Simulation time: 03 hr 42 min 20 sec)
Heartbeat CPU 11 instructions: 130000008 cycles: 32510995 heartbeat IPC: 4 cumulative IPC: 3.999 (Simulation time: 03 hr 42 min 20 sec)
Heartbeat CPU 3 instructions: 130000008 cycles: 32510996 heartbeat IPC: 4 cumulative IPC: 3.999 (Simulation time: 03 hr 42 min 20 sec)
Heartbeat CPU 13 instructions: 130000009 cycles: 32510998 heartbeat IPC: 4 cumulative IPC: 3.999 (Simulation time: 03 hr 42 min 20 sec)
Heartbeat CPU 5 instructions: 130000005 cycles: 32511029 heartbeat IPC: 4 cumulative IPC: 3.999 (Simulation time: 03 hr 42 min 20 sec)
Heartbeat CPU 12 instructions: 130000006 cycles: 32511103 heartbeat IPC: 4 cumulative IPC: 3.999 (Simulation time: 03 hr 42 min 20 sec)
Heartbeat CPU 14 instructions: 130000006 cycles: 32511232 heartbeat IPC: 4 cumulative IPC: 3.999 (Simulation time: 03 hr 42 min 20 sec)
Heartbeat CPU 6 instructions: 130000006 cycles: 32511236 heartbeat IPC: 4 cumulative IPC: 3.999 (Simulation time: 03 hr 42 min 20 sec)
Heartbeat CPU 7 instructions: 130000007 cycles: 32511254 heartbeat IPC: 4 cumulative IPC: 3.999 (Simulation time: 03 hr 42 min 20 sec)
Heartbeat CPU 15 instructions: 130000003 cycles: 32511340 heartbeat IPC: 4 cumulative IPC: 3.999 (Simulation time: 03 hr 42 min 20 sec)
Heartbeat CPU 2 instructions: 130000006 cycles: 32512866 heartbeat IPC: 4 cumulative IPC: 3.998 (Simulation time: 03 hr 42 min 21 sec)
Heartbeat CPU 10 instructions: 130000006 cycles: 32513049 heartbeat IPC: 4 cumulative IPC: 3.998 (Simulation time: 03 hr 42 min 21 sec)
*** Reached end of trace: (2, "/home/harshraj/COALESCE-Hashed-Perceptron-Cache-Replacement-Policy/simulator/traces/ocean_8t/ocean2.champsimtrace")
*** Reached end of trace: (10, "/home/harshraj/COALESCE-Hashed-Perceptron-Cache-Replacement-Policy/simulator/traces/ocean_8t/ocean2.champsimtrace")
*** Reached end of trace: (13, "/home/harshraj/COALESCE-Hashed-Perceptron-Cache-Replacement-Policy/simulator/traces/ocean_8t/ocean5.champsimtrace")
*** Reached end of trace: (5, "/home/harshraj/COALESCE-Hashed-Perceptron-Cache-Replacement-Policy/simulator/traces/ocean_8t/ocean5.champsimtrace")
*** Reached end of trace: (4, "/home/harshraj/COALESCE-Hashed-Perceptron-Cache-Replacement-Policy/simulator/traces/ocean_8t/ocean4.champsimtrace")
*** Reached end of trace: (12, "/home/harshraj/COALESCE-Hashed-Perceptron-Cache-Replacement-Policy/simulator/traces/ocean_8t/ocean4.champsimtrace")
*** Reached end of trace: (14, "/home/harshraj/COALESCE-Hashed-Perceptron-Cache-Replacement-Policy/simulator/traces/ocean_8t/ocean6.champsimtrace")
*** Reached end of trace: (6, "/home/harshraj/COALESCE-Hashed-Perceptron-Cache-Replacement-Policy/simulator/traces/ocean_8t/ocean6.champsimtrace")
*** Reached end of trace: (11, "/home/harshraj/COALESCE-Hashed-Perceptron-Cache-Replacement-Policy/simulator/traces/ocean_8t/ocean3.champsimtrace")
*** Reached end of trace: (3, "/home/harshraj/COALESCE-Hashed-Perceptron-Cache-Replacement-Policy/simulator/traces/ocean_8t/ocean3.champsimtrace")
*** Reached end of trace: (7, "/home/harshraj/COALESCE-Hashed-Perceptron-Cache-Replacement-Policy/simulator/traces/ocean_8t/ocean7.champsimtrace")
*** Reached end of trace: (15, "/home/harshraj/COALESCE-Hashed-Perceptron-Cache-Replacement-Policy/simulator/traces/ocean_8t/ocean7.champsimtrace")
Heartbeat CPU 4 instructions: 140000006 cycles: 35010914 heartbeat IPC: 4 cumulative IPC: 3.999 (Simulation time: 03 hr 58 min 20 sec)
Heartbeat CPU 11 instructions: 140000008 cycles: 35010995 heartbeat IPC: 4 cumulative IPC: 3.999 (Simulation time: 03 hr 58 min 20 sec)
Heartbeat CPU 3 instructions: 140000008 cycles: 35010996 heartbeat IPC: 4 cumulative IPC: 3.999 (Simulation time: 03 hr 58 min 20 sec)
Heartbeat CPU 13 instructions: 140000009 cycles: 35010998 heartbeat IPC: 4 cumulative IPC: 3.999 (Simulation time: 03 hr 58 min 20 sec)
Heartbeat CPU 5 instructions: 140000005 cycles: 35011029 heartbeat IPC: 4 cumulative IPC: 3.999 (Simulation time: 03 hr 58 min 20 sec)
Heartbeat CPU 12 instructions: 140000006 cycles: 35011103 heartbeat IPC: 4 cumulative IPC: 3.999 (Simulation time: 03 hr 58 min 20 sec)
Heartbeat CPU 14 instructions: 140000006 cycles: 35011232 heartbeat IPC: 4 cumulative IPC: 3.999 (Simulation time: 03 hr 58 min 20 sec)
Heartbeat CPU 6 instructions: 140000006 cycles: 35011236 heartbeat IPC: 4 cumulative IPC: 3.999 (Simulation time: 03 hr 58 min 20 sec)
Heartbeat CPU 7 instructions: 140000007 cycles: 35011254 heartbeat IPC: 4 cumulative IPC: 3.999 (Simulation time: 03 hr 58 min 20 sec)
Heartbeat CPU 15 instructions: 140000003 cycles: 35011340 heartbeat IPC: 4 cumulative IPC: 3.999 (Simulation time: 03 hr 58 min 20 sec)
Heartbeat CPU 2 instructions: 140000006 cycles: 35012866 heartbeat IPC: 4 cumulative IPC: 3.999 (Simulation time: 03 hr 58 min 21 sec)
Heartbeat CPU 10 instructions: 140000006 cycles: 35013049 heartbeat IPC: 4 cumulative IPC: 3.999 (Simulation time: 03 hr 58 min 21 sec)
Heartbeat CPU 9 instructions: 80000013 cycles: 36225119 heartbeat IPC: 1.801 cumulative IPC: 2.208 (Simulation time: 04 hr 06 min 32 sec)
Heartbeat CPU 1 instructions: 80000013 cycles: 36225123 heartbeat IPC: 1.801 cumulative IPC: 2.208 (Simulation time: 04 hr 06 min 32 sec)
Heartbeat CPU 4 instructions: 150000006 cycles: 37510914 heartbeat IPC: 4 cumulative IPC: 3.999 (Simulation time: 04 hr 15 min 12 sec)
Heartbeat CPU 11 instructions: 150000008 cycles: 37510995 heartbeat IPC: 4 cumulative IPC: 3.999 (Simulation time: 04 hr 15 min 12 sec)
Heartbeat CPU 3 instructions: 150000008 cycles: 37510996 heartbeat IPC: 4 cumulative IPC: 3.999 (Simulation time: 04 hr 15 min 12 sec)
Heartbeat CPU 13 instructions: 150000009 cycles: 37510998 heartbeat IPC: 4 cumulative IPC: 3.999 (Simulation time: 04 hr 15 min 12 sec)
Heartbeat CPU 5 instructions: 150000005 cycles: 37511029 heartbeat IPC: 4 cumulative IPC: 3.999 (Simulation time: 04 hr 15 min 12 sec)
Heartbeat CPU 12 instructions: 150000006 cycles: 37511103 heartbeat IPC: 4 cumulative IPC: 3.999 (Simulation time: 04 hr 15 min 12 sec)
Heartbeat CPU 14 instructions: 150000006 cycles: 37511232 heartbeat IPC: 4 cumulative IPC: 3.999 (Simulation time: 04 hr 15 min 12 sec)
Heartbeat CPU 6 instructions: 150000006 cycles: 37511236 heartbeat IPC: 4 cumulative IPC: 3.999 (Simulation time: 04 hr 15 min 12 sec)
Heartbeat CPU 7 instructions: 150000007 cycles: 37511254 heartbeat IPC: 4 cumulative IPC: 3.999 (Simulation time: 04 hr 15 min 12 sec)
Heartbeat CPU 15 instructions: 150000003 cycles: 37511340 heartbeat IPC: 4 cumulative IPC: 3.999 (Simulation time: 04 hr 15 min 12 sec)
Heartbeat CPU 2 instructions: 150000006 cycles: 37512866 heartbeat IPC: 4 cumulative IPC: 3.999 (Simulation time: 04 hr 15 min 13 sec)
Heartbeat CPU 10 instructions: 150000006 cycles: 37513049 heartbeat IPC: 4 cumulative IPC: 3.999 (Simulation time: 04 hr 15 min 13 sec)
Heartbeat CPU 1 instructions: 90000016 cycles: 39653820 heartbeat IPC: 2.917 cumulative IPC: 2.27 (Simulation time: 04 hr 29 min 21 sec)
Heartbeat CPU 9 instructions: 90000014 cycles: 39653821 heartbeat IPC: 2.917 cumulative IPC: 2.27 (Simulation time: 04 hr 29 min 21 sec)
Heartbeat CPU 4 instructions: 160000006 cycles: 40010914 heartbeat IPC: 4 cumulative IPC: 3.999 (Simulation time: 04 hr 31 min 59 sec)
Heartbeat CPU 11 instructions: 160000008 cycles: 40010995 heartbeat IPC: 4 cumulative IPC: 3.999 (Simulation time: 04 hr 31 min 59 sec)
Heartbeat CPU 3 instructions: 160000008 cycles: 40010996 heartbeat IPC: 4 cumulative IPC: 3.999 (Simulation time: 04 hr 31 min 59 sec)
Heartbeat CPU 13 instructions: 160000009 cycles: 40010998 heartbeat IPC: 4 cumulative IPC: 3.999 (Simulation time: 04 hr 31 min 59 sec)
Heartbeat CPU 5 instructions: 160000005 cycles: 40011029 heartbeat IPC: 4 cumulative IPC: 3.999 (Simulation time: 04 hr 31 min 59 sec)
Heartbeat CPU 12 instructions: 160000006 cycles: 40011103 heartbeat IPC: 4 cumulative IPC: 3.999 (Simulation time: 04 hr 31 min 59 sec)
Heartbeat CPU 14 instructions: 160000006 cycles: 40011232 heartbeat IPC: 4 cumulative IPC: 3.999 (Simulation time: 04 hr 31 min 59 sec)
Heartbeat CPU 6 instructions: 160000006 cycles: 40011236 heartbeat IPC: 4 cumulative IPC: 3.999 (Simulation time: 04 hr 31 min 59 sec)
Heartbeat CPU 7 instructions: 160000007 cycles: 40011254 heartbeat IPC: 4 cumulative IPC: 3.999 (Simulation time: 04 hr 31 min 59 sec)
Heartbeat CPU 15 instructions: 160000003 cycles: 40011340 heartbeat IPC: 4 cumulative IPC: 3.999 (Simulation time: 04 hr 31 min 59 sec)
Heartbeat CPU 2 instructions: 160000006 cycles: 40012866 heartbeat IPC: 4 cumulative IPC: 3.999 (Simulation time: 04 hr 32 min 00 sec)
Heartbeat CPU 10 instructions: 160000006 cycles: 40013049 heartbeat IPC: 4 cumulative IPC: 3.999 (Simulation time: 04 hr 32 min 00 sec)
*** Reached end of trace: (9, "/home/harshraj/COALESCE-Hashed-Perceptron-Cache-Replacement-Policy/simulator/traces/ocean_8t/ocean1.champsimtrace")
*** Reached end of trace: (1, "/home/harshraj/COALESCE-Hashed-Perceptron-Cache-Replacement-Policy/simulator/traces/ocean_8t/ocean1.champsimtrace")
Heartbeat CPU 8 instructions: 20000001 cycles: 41746218 heartbeat IPC: 0.4733 cumulative IPC: 0.4791 (Simulation time: 04 hr 44 min 25 sec)
Heartbeat CPU 0 instructions: 20000001 cycles: 41747196 heartbeat IPC: 0.4733 cumulative IPC: 0.4791 (Simulation time: 04 hr 44 min 26 sec)
Heartbeat CPU 4 instructions: 170000006 cycles: 42510914 heartbeat IPC: 4 cumulative IPC: 3.999 (Simulation time: 04 hr 49 min 51 sec)
Heartbeat CPU 11 instructions: 170000008 cycles: 42510995 heartbeat IPC: 4 cumulative IPC: 3.999 (Simulation time: 04 hr 49 min 51 sec)
Heartbeat CPU 3 instructions: 170000008 cycles: 42510996 heartbeat IPC: 4 cumulative IPC: 3.999 (Simulation time: 04 hr 49 min 51 sec)
Heartbeat CPU 13 instructions: 170000009 cycles: 42510998 heartbeat IPC: 4 cumulative IPC: 3.999 (Simulation time: 04 hr 49 min 51 sec)
Heartbeat CPU 5 instructions: 170000005 cycles: 42511029 heartbeat IPC: 4 cumulative IPC: 3.999 (Simulation time: 04 hr 49 min 51 sec)
Heartbeat CPU 12 instructions: 170000006 cycles: 42511103 heartbeat IPC: 4 cumulative IPC: 3.999 (Simulation time: 04 hr 49 min 51 sec)
Heartbeat CPU 14 instructions: 170000006 cycles: 42511232 heartbeat IPC: 4 cumulative IPC: 3.999 (Simulation time: 04 hr 49 min 51 sec)
Heartbeat CPU 6 instructions: 170000006 cycles: 42511236 heartbeat IPC: 4 cumulative IPC: 3.999 (Simulation time: 04 hr 49 min 51 sec)
Heartbeat CPU 7 instructions: 170000007 cycles: 42511254 heartbeat IPC: 4 cumulative IPC: 3.999 (Simulation time: 04 hr 49 min 51 sec)
Heartbeat CPU 15 instructions: 170000003 cycles: 42511340 heartbeat IPC: 4 cumulative IPC: 3.999 (Simulation time: 04 hr 49 min 51 sec)
Heartbeat CPU 2 instructions: 170000006 cycles: 42512866 heartbeat IPC: 4 cumulative IPC: 3.999 (Simulation time: 04 hr 49 min 51 sec)
Heartbeat CPU 10 instructions: 170000006 cycles: 42513049 heartbeat IPC: 4 cumulative IPC: 3.999 (Simulation time: 04 hr 49 min 52 sec)
Heartbeat CPU 1 instructions: 100000017 cycles: 43747198 heartbeat IPC: 2.443 cumulative IPC: 2.286 (Simulation time: 04 hr 58 min 10 sec)
Heartbeat CPU 9 instructions: 100000017 cycles: 43747922 heartbeat IPC: 2.443 cumulative IPC: 2.286 (Simulation time: 04 hr 58 min 10 sec)
Heartbeat CPU 4 instructions: 180000006 cycles: 45010914 heartbeat IPC: 4 cumulative IPC: 3.999 (Simulation time: 05 hr 05 min 52 sec)
Heartbeat CPU 11 instructions: 180000008 cycles: 45010995 heartbeat IPC: 4 cumulative IPC: 3.999 (Simulation time: 05 hr 05 min 52 sec)
Heartbeat CPU 3 instructions: 180000008 cycles: 45010996 heartbeat IPC: 4 cumulative IPC: 3.999 (Simulation time: 05 hr 05 min 52 sec)
Heartbeat CPU 13 instructions: 180000009 cycles: 45010998 heartbeat IPC: 4 cumulative IPC: 3.999 (Simulation time: 05 hr 05 min 52 sec)
Heartbeat CPU 5 instructions: 180000005 cycles: 45011029 heartbeat IPC: 4 cumulative IPC: 3.999 (Simulation time: 05 hr 05 min 52 sec)
Heartbeat CPU 12 instructions: 180000006 cycles: 45011103 heartbeat IPC: 4 cumulative IPC: 3.999 (Simulation time: 05 hr 05 min 52 sec)
Heartbeat CPU 14 instructions: 180000006 cycles: 45011232 heartbeat IPC: 4 cumulative IPC: 3.999 (Simulation time: 05 hr 05 min 52 sec)
Heartbeat CPU 6 instructions: 180000006 cycles: 45011236 heartbeat IPC: 4 cumulative IPC: 3.999 (Simulation time: 05 hr 05 min 52 sec)
Heartbeat CPU 7 instructions: 180000007 cycles: 45011254 heartbeat IPC: 4 cumulative IPC: 3.999 (Simulation time: 05 hr 05 min 52 sec)
Heartbeat CPU 15 instructions: 180000003 cycles: 45011340 heartbeat IPC: 4 cumulative IPC: 3.999 (Simulation time: 05 hr 05 min 52 sec)
Heartbeat CPU 2 instructions: 180000006 cycles: 45012866 heartbeat IPC: 4 cumulative IPC: 3.999 (Simulation time: 05 hr 05 min 53 sec)
Heartbeat CPU 10 instructions: 180000006 cycles: 45013049 heartbeat IPC: 4 cumulative IPC: 3.999 (Simulation time: 05 hr 05 min 53 sec)
*** Reached end of trace: (2, "/home/harshraj/COALESCE-Hashed-Perceptron-Cache-Replacement-Policy/simulator/traces/ocean_8t/ocean2.champsimtrace")
*** Reached end of trace: (10, "/home/harshraj/COALESCE-Hashed-Perceptron-Cache-Replacement-Policy/simulator/traces/ocean_8t/ocean2.champsimtrace")
*** Reached end of trace: (13, "/home/harshraj/COALESCE-Hashed-Perceptron-Cache-Replacement-Policy/simulator/traces/ocean_8t/ocean5.champsimtrace")
*** Reached end of trace: (5, "/home/harshraj/COALESCE-Hashed-Perceptron-Cache-Replacement-Policy/simulator/traces/ocean_8t/ocean5.champsimtrace")
*** Reached end of trace: (4, "/home/harshraj/COALESCE-Hashed-Perceptron-Cache-Replacement-Policy/simulator/traces/ocean_8t/ocean4.champsimtrace")
*** Reached end of trace: (12, "/home/harshraj/COALESCE-Hashed-Perceptron-Cache-Replacement-Policy/simulator/traces/ocean_8t/ocean4.champsimtrace")
*** Reached end of trace: (14, "/home/harshraj/COALESCE-Hashed-Perceptron-Cache-Replacement-Policy/simulator/traces/ocean_8t/ocean6.champsimtrace")
*** Reached end of trace: (6, "/home/harshraj/COALESCE-Hashed-Perceptron-Cache-Replacement-Policy/simulator/traces/ocean_8t/ocean6.champsimtrace")
*** Reached end of trace: (11, "/home/harshraj/COALESCE-Hashed-Perceptron-Cache-Replacement-Policy/simulator/traces/ocean_8t/ocean3.champsimtrace")
*** Reached end of trace: (3, "/home/harshraj/COALESCE-Hashed-Perceptron-Cache-Replacement-Policy/simulator/traces/ocean_8t/ocean3.champsimtrace")
*** Reached end of trace: (7, "/home/harshraj/COALESCE-Hashed-Perceptron-Cache-Replacement-Policy/simulator/traces/ocean_8t/ocean7.champsimtrace")
*** Reached end of trace: (15, "/home/harshraj/COALESCE-Hashed-Perceptron-Cache-Replacement-Policy/simulator/traces/ocean_8t/ocean7.champsimtrace")
Heartbeat CPU 4 instructions: 190000006 cycles: 47510914 heartbeat IPC: 4 cumulative IPC: 3.999 (Simulation time: 05 hr 23 min 26 sec)
Heartbeat CPU 11 instructions: 190000008 cycles: 47510995 heartbeat IPC: 4 cumulative IPC: 3.999 (Simulation time: 05 hr 23 min 26 sec)
Heartbeat CPU 3 instructions: 190000008 cycles: 47510996 heartbeat IPC: 4 cumulative IPC: 3.999 (Simulation time: 05 hr 23 min 26 sec)
Heartbeat CPU 13 instructions: 190000009 cycles: 47510998 heartbeat IPC: 4 cumulative IPC: 3.999 (Simulation time: 05 hr 23 min 26 sec)
Heartbeat CPU 5 instructions: 190000005 cycles: 47511029 heartbeat IPC: 4 cumulative IPC: 3.999 (Simulation time: 05 hr 23 min 26 sec)
Heartbeat CPU 12 instructions: 190000006 cycles: 47511103 heartbeat IPC: 4 cumulative IPC: 3.999 (Simulation time: 05 hr 23 min 26 sec)
Heartbeat CPU 14 instructions: 190000006 cycles: 47511232 heartbeat IPC: 4 cumulative IPC: 3.999 (Simulation time: 05 hr 23 min 26 sec)
Heartbeat CPU 6 instructions: 190000006 cycles: 47511236 heartbeat IPC: 4 cumulative IPC: 3.999 (Simulation time: 05 hr 23 min 26 sec)
Heartbeat CPU 7 instructions: 190000007 cycles: 47511254 heartbeat IPC: 4 cumulative IPC: 3.999 (Simulation time: 05 hr 23 min 26 sec)
Heartbeat CPU 15 instructions: 190000003 cycles: 47511340 heartbeat IPC: 4 cumulative IPC: 3.999 (Simulation time: 05 hr 23 min 26 sec)
Heartbeat CPU 2 instructions: 190000006 cycles: 47512866 heartbeat IPC: 4 cumulative IPC: 3.999 (Simulation time: 05 hr 23 min 27 sec)
Heartbeat CPU 10 instructions: 190000006 cycles: 47513049 heartbeat IPC: 4 cumulative IPC: 3.999 (Simulation time: 05 hr 23 min 27 sec)
Heartbeat CPU 1 instructions: 110000018 cycles: 47843279 heartbeat IPC: 2.441 cumulative IPC: 2.299 (Simulation time: 05 hr 25 min 52 sec)
Heartbeat CPU 9 instructions: 110000018 cycles: 47849380 heartbeat IPC: 2.438 cumulative IPC: 2.299 (Simulation time: 05 hr 25 min 54 sec)
Heartbeat CPU 4 instructions: 200000006 cycles: 50010914 heartbeat IPC: 4 cumulative IPC: 3.999 (Simulation time: 05 hr 40 min 23 sec)
Heartbeat CPU 11 instructions: 200000008 cycles: 50010995 heartbeat IPC: 4 cumulative IPC: 3.999 (Simulation time: 05 hr 40 min 23 sec)
Heartbeat CPU 3 instructions: 200000008 cycles: 50010996 heartbeat IPC: 4 cumulative IPC: 3.999 (Simulation time: 05 hr 40 min 23 sec)
Heartbeat CPU 13 instructions: 200000009 cycles: 50010998 heartbeat IPC: 4 cumulative IPC: 3.999 (Simulation time: 05 hr 40 min 23 sec)
Heartbeat CPU 5 instructions: 200000005 cycles: 50011029 heartbeat IPC: 4 cumulative IPC: 3.999 (Simulation time: 05 hr 40 min 23 sec)
Heartbeat CPU 12 instructions: 200000006 cycles: 50011103 heartbeat IPC: 4 cumulative IPC: 3.999 (Simulation time: 05 hr 40 min 23 sec)
Heartbeat CPU 14 instructions: 200000006 cycles: 50011232 heartbeat IPC: 4 cumulative IPC: 3.999 (Simulation time: 05 hr 40 min 23 sec)
Heartbeat CPU 6 instructions: 200000006 cycles: 50011236 heartbeat IPC: 4 cumulative IPC: 3.999 (Simulation time: 05 hr 40 min 23 sec)
Heartbeat CPU 7 instructions: 200000007 cycles: 50011254 heartbeat IPC: 4 cumulative IPC: 3.999 (Simulation time: 05 hr 40 min 23 sec)
Heartbeat CPU 15 instructions: 200000003 cycles: 50011340 heartbeat IPC: 4 cumulative IPC: 3.999 (Simulation time: 05 hr 40 min 23 sec)
Heartbeat CPU 2 instructions: 200000006 cycles: 50012866 heartbeat IPC: 4 cumulative IPC: 3.999 (Simulation time: 05 hr 40 min 24 sec)
Heartbeat CPU 10 instructions: 200000006 cycles: 50013049 heartbeat IPC: 4 cumulative IPC: 3.999 (Simulation time: 05 hr 40 min 24 sec)
Heartbeat CPU 4 instructions: 210000006 cycles: 52510914 heartbeat IPC: 4 cumulative IPC: 3.999 (Simulation time: 05 hr 57 min 44 sec)
Heartbeat CPU 11 instructions: 210000008 cycles: 52510995 heartbeat IPC: 4 cumulative IPC: 3.999 (Simulation time: 05 hr 57 min 44 sec)
Heartbeat CPU 3 instructions: 210000008 cycles: 52510996 heartbeat IPC: 4 cumulative IPC: 3.999 (Simulation time: 05 hr 57 min 44 sec)
Heartbeat CPU 13 instructions: 210000009 cycles: 52510998 heartbeat IPC: 4 cumulative IPC: 3.999 (Simulation time: 05 hr 57 min 44 sec)
Heartbeat CPU 5 instructions: 210000005 cycles: 52511029 heartbeat IPC: 4 cumulative IPC: 3.999 (Simulation time: 05 hr 57 min 44 sec)
Heartbeat CPU 12 instructions: 210000006 cycles: 52511103 heartbeat IPC: 4 cumulative IPC: 3.999 (Simulation time: 05 hr 57 min 44 sec)
Heartbeat CPU 14 instructions: 210000006 cycles: 52511232 heartbeat IPC: 4 cumulative IPC: 3.999 (Simulation time: 05 hr 57 min 44 sec)
Heartbeat CPU 6 instructions: 210000006 cycles: 52511236 heartbeat IPC: 4 cumulative IPC: 3.999 (Simulation time: 05 hr 57 min 44 sec)
Heartbeat CPU 7 instructions: 210000007 cycles: 52511254 heartbeat IPC: 4 cumulative IPC: 3.999 (Simulation time: 05 hr 57 min 44 sec)
Heartbeat CPU 15 instructions: 210000003 cycles: 52511340 heartbeat IPC: 4 cumulative IPC: 3.999 (Simulation time: 05 hr 57 min 44 sec)
Heartbeat CPU 2 instructions: 210000006 cycles: 52512866 heartbeat IPC: 4 cumulative IPC: 3.999 (Simulation time: 05 hr 57 min 45 sec)
Heartbeat CPU 10 instructions: 210000006 cycles: 52513049 heartbeat IPC: 4 cumulative IPC: 3.999 (Simulation time: 05 hr 57 min 45 sec)
Heartbeat CPU 1 instructions: 120000018 cycles: 52772251 heartbeat IPC: 2.029 cumulative IPC: 2.274 (Simulation time: 05 hr 59 min 26 sec)
Heartbeat CPU 9 instructions: 120000018 cycles: 52772255 heartbeat IPC: 2.031 cumulative IPC: 2.274 (Simulation time: 05 hr 59 min 26 sec)
Heartbeat CPU 4 instructions: 220000006 cycles: 55010914 heartbeat IPC: 4 cumulative IPC: 3.999 (Simulation time: 06 hr 14 min 50 sec)
Heartbeat CPU 11 instructions: 220000008 cycles: 55010995 heartbeat IPC: 4 cumulative IPC: 3.999 (Simulation time: 06 hr 14 min 50 sec)
Heartbeat CPU 3 instructions: 220000008 cycles: 55010996 heartbeat IPC: 4 cumulative IPC: 3.999 (Simulation time: 06 hr 14 min 50 sec)
Heartbeat CPU 13 instructions: 220000009 cycles: 55010998 heartbeat IPC: 4 cumulative IPC: 3.999 (Simulation time: 06 hr 14 min 50 sec)
Heartbeat CPU 5 instructions: 220000005 cycles: 55011029 heartbeat IPC: 4 cumulative IPC: 3.999 (Simulation time: 06 hr 14 min 50 sec)
Heartbeat CPU 12 instructions: 220000006 cycles: 55011103 heartbeat IPC: 4 cumulative IPC: 3.999 (Simulation time: 06 hr 14 min 50 sec)
Heartbeat CPU 14 instructions: 220000006 cycles: 55011232 heartbeat IPC: 4 cumulative IPC: 3.999 (Simulation time: 06 hr 14 min 50 sec)
Heartbeat CPU 6 instructions: 220000006 cycles: 55011236 heartbeat IPC: 4 cumulative IPC: 3.999 (Simulation time: 06 hr 14 min 50 sec)
Heartbeat CPU 7 instructions: 220000007 cycles: 55011254 heartbeat IPC: 4 cumulative IPC: 3.999 (Simulation time: 06 hr 14 min 50 sec)
Heartbeat CPU 15 instructions: 220000003 cycles: 55011340 heartbeat IPC: 4 cumulative IPC: 3.999 (Simulation time: 06 hr 14 min 50 sec)
Heartbeat CPU 2 instructions: 220000006 cycles: 55012866 heartbeat IPC: 4 cumulative IPC: 3.999 (Simulation time: 06 hr 14 min 51 sec)
Heartbeat CPU 10 instructions: 220000006 cycles: 55013049 heartbeat IPC: 4 cumulative IPC: 3.999 (Simulation time: 06 hr 14 min 51 sec)
*** Reached end of trace: (2, "/home/harshraj/COALESCE-Hashed-Perceptron-Cache-Replacement-Policy/simulator/traces/ocean_8t/ocean2.champsimtrace")
*** Reached end of trace: (10, "/home/harshraj/COALESCE-Hashed-Perceptron-Cache-Replacement-Policy/simulator/traces/ocean_8t/ocean2.champsimtrace")
*** Reached end of trace: (13, "/home/harshraj/COALESCE-Hashed-Perceptron-Cache-Replacement-Policy/simulator/traces/ocean_8t/ocean5.champsimtrace")
*** Reached end of trace: (5, "/home/harshraj/COALESCE-Hashed-Perceptron-Cache-Replacement-Policy/simulator/traces/ocean_8t/ocean5.champsimtrace")
*** Reached end of trace: (4, "/home/harshraj/COALESCE-Hashed-Perceptron-Cache-Replacement-Policy/simulator/traces/ocean_8t/ocean4.champsimtrace")
*** Reached end of trace: (12, "/home/harshraj/COALESCE-Hashed-Perceptron-Cache-Replacement-Policy/simulator/traces/ocean_8t/ocean4.champsimtrace")
*** Reached end of trace: (14, "/home/harshraj/COALESCE-Hashed-Perceptron-Cache-Replacement-Policy/simulator/traces/ocean_8t/ocean6.champsimtrace")
*** Reached end of trace: (6, "/home/harshraj/COALESCE-Hashed-Perceptron-Cache-Replacement-Policy/simulator/traces/ocean_8t/ocean6.champsimtrace")
*** Reached end of trace: (11, "/home/harshraj/COALESCE-Hashed-Perceptron-Cache-Replacement-Policy/simulator/traces/ocean_8t/ocean3.champsimtrace")
*** Reached end of trace: (3, "/home/harshraj/COALESCE-Hashed-Perceptron-Cache-Replacement-Policy/simulator/traces/ocean_8t/ocean3.champsimtrace")
*** Reached end of trace: (7, "/home/harshraj/COALESCE-Hashed-Perceptron-Cache-Replacement-Policy/simulator/traces/ocean_8t/ocean7.champsimtrace")
*** Reached end of trace: (15, "/home/harshraj/COALESCE-Hashed-Perceptron-Cache-Replacement-Policy/simulator/traces/ocean_8t/ocean7.champsimtrace")
Heartbeat CPU 9 instructions: 130000019 cycles: 57250495 heartbeat IPC: 2.233 cumulative IPC: 2.271 (Simulation time: 06 hr 30 min 52 sec)
Heartbeat CPU 1 instructions: 130000019 cycles: 57250496 heartbeat IPC: 2.233 cumulative IPC: 2.271 (Simulation time: 06 hr 30 min 52 sec)
Heartbeat CPU 4 instructions: 230000006 cycles: 57510914 heartbeat IPC: 4 cumulative IPC: 3.999 (Simulation time: 06 hr 32 min 51 sec)
Heartbeat CPU 11 instructions: 230000008 cycles: 57510995 heartbeat IPC: 4 cumulative IPC: 3.999 (Simulation time: 06 hr 32 min 51 sec)
Heartbeat CPU 3 instructions: 230000008 cycles: 57510996 heartbeat IPC: 4 cumulative IPC: 3.999 (Simulation time: 06 hr 32 min 51 sec)
Heartbeat CPU 13 instructions: 230000009 cycles: 57510998 heartbeat IPC: 4 cumulative IPC: 3.999 (Simulation time: 06 hr 32 min 51 sec)
Heartbeat CPU 5 instructions: 230000005 cycles: 57511029 heartbeat IPC: 4 cumulative IPC: 3.999 (Simulation time: 06 hr 32 min 51 sec)
Heartbeat CPU 12 instructions: 230000006 cycles: 57511103 heartbeat IPC: 4 cumulative IPC: 3.999 (Simulation time: 06 hr 32 min 51 sec)
Heartbeat CPU 14 instructions: 230000006 cycles: 57511232 heartbeat IPC: 4 cumulative IPC: 3.999 (Simulation time: 06 hr 32 min 51 sec)
Heartbeat CPU 6 instructions: 230000006 cycles: 57511236 heartbeat IPC: 4 cumulative IPC: 3.999 (Simulation time: 06 hr 32 min 51 sec)
Heartbeat CPU 7 instructions: 230000007 cycles: 57511254 heartbeat IPC: 4 cumulative IPC: 3.999 (Simulation time: 06 hr 32 min 51 sec)
Heartbeat CPU 15 instructions: 230000003 cycles: 57511340 heartbeat IPC: 4 cumulative IPC: 3.999 (Simulation time: 06 hr 32 min 51 sec)
Heartbeat CPU 2 instructions: 230000006 cycles: 57512866 heartbeat IPC: 4 cumulative IPC: 3.999 (Simulation time: 06 hr 32 min 52 sec)
Heartbeat CPU 10 instructions: 230000006 cycles: 57513049 heartbeat IPC: 4 cumulative IPC: 3.999 (Simulation time: 06 hr 32 min 52 sec)
*** Reached end of trace: (9, "/home/harshraj/COALESCE-Hashed-Perceptron-Cache-Replacement-Policy/simulator/traces/ocean_8t/ocean1.champsimtrace")
*** Reached end of trace: (1, "/home/harshraj/COALESCE-Hashed-Perceptron-Cache-Replacement-Policy/simulator/traces/ocean_8t/ocean1.champsimtrace")
Heartbeat CPU 4 instructions: 240000006 cycles: 60010914 heartbeat IPC: 4 cumulative IPC: 3.999 (Simulation time: 06 hr 50 min 29 sec)
Heartbeat CPU 11 instructions: 240000008 cycles: 60010995 heartbeat IPC: 4 cumulative IPC: 3.999 (Simulation time: 06 hr 50 min 29 sec)
Heartbeat CPU 3 instructions: 240000008 cycles: 60010996 heartbeat IPC: 4 cumulative IPC: 3.999 (Simulation time: 06 hr 50 min 29 sec)
Heartbeat CPU 13 instructions: 240000009 cycles: 60010998 heartbeat IPC: 4 cumulative IPC: 3.999 (Simulation time: 06 hr 50 min 29 sec)
Heartbeat CPU 5 instructions: 240000005 cycles: 60011029 heartbeat IPC: 4 cumulative IPC: 3.999 (Simulation time: 06 hr 50 min 29 sec)
Heartbeat CPU 12 instructions: 240000006 cycles: 60011103 heartbeat IPC: 4 cumulative IPC: 3.999 (Simulation time: 06 hr 50 min 29 sec)
Heartbeat CPU 14 instructions: 240000006 cycles: 60011232 heartbeat IPC: 4 cumulative IPC: 3.999 (Simulation time: 06 hr 50 min 29 sec)
Heartbeat CPU 6 instructions: 240000006 cycles: 60011236 heartbeat IPC: 4 cumulative IPC: 3.999 (Simulation time: 06 hr 50 min 29 sec)
Heartbeat CPU 7 instructions: 240000007 cycles: 60011254 heartbeat IPC: 4 cumulative IPC: 3.999 (Simulation time: 06 hr 50 min 29 sec)
Heartbeat CPU 15 instructions: 240000003 cycles: 60011340 heartbeat IPC: 4 cumulative IPC: 3.999 (Simulation time: 06 hr 50 min 29 sec)
Heartbeat CPU 2 instructions: 240000006 cycles: 60012866 heartbeat IPC: 4 cumulative IPC: 3.999 (Simulation time: 06 hr 50 min 29 sec)
Heartbeat CPU 10 instructions: 240000006 cycles: 60013049 heartbeat IPC: 4 cumulative IPC: 3.999 (Simulation time: 06 hr 50 min 30 sec)
Heartbeat CPU 1 instructions: 140000019 cycles: 60977682 heartbeat IPC: 2.683 cumulative IPC: 2.296 (Simulation time: 06 hr 57 min 33 sec)
Heartbeat CPU 9 instructions: 140000019 cycles: 60978626 heartbeat IPC: 2.682 cumulative IPC: 2.296 (Simulation time: 06 hr 57 min 33 sec)
Heartbeat CPU 8 instructions: 30000005 cycles: 61812400 heartbeat IPC: 0.4984 cumulative IPC: 0.4853 (Simulation time: 07 hr 03 min 16 sec)
Heartbeat CPU 0 instructions: 30000005 cycles: 61823142 heartbeat IPC: 0.4981 cumulative IPC: 0.4853 (Simulation time: 07 hr 03 min 20 sec)
Heartbeat CPU 4 instructions: 250000006 cycles: 62510914 heartbeat IPC: 4 cumulative IPC: 3.999 (Simulation time: 07 hr 07 min 23 sec)
Heartbeat CPU 11 instructions: 250000008 cycles: 62510995 heartbeat IPC: 4 cumulative IPC: 3.999 (Simulation time: 07 hr 07 min 23 sec)
Heartbeat CPU 3 instructions: 250000008 cycles: 62510996 heartbeat IPC: 4 cumulative IPC: 3.999 (Simulation time: 07 hr 07 min 23 sec)
Heartbeat CPU 13 instructions: 250000009 cycles: 62510998 heartbeat IPC: 4 cumulative IPC: 3.999 (Simulation time: 07 hr 07 min 23 sec)
Heartbeat CPU 5 instructions: 250000005 cycles: 62511029 heartbeat IPC: 4 cumulative IPC: 3.999 (Simulation time: 07 hr 07 min 23 sec)
Heartbeat CPU 12 instructions: 250000006 cycles: 62511103 heartbeat IPC: 4 cumulative IPC: 3.999 (Simulation time: 07 hr 07 min 23 sec)
Heartbeat CPU 14 instructions: 250000006 cycles: 62511232 heartbeat IPC: 4 cumulative IPC: 3.999 (Simulation time: 07 hr 07 min 23 sec)
Heartbeat CPU 6 instructions: 250000006 cycles: 62511236 heartbeat IPC: 4 cumulative IPC: 3.999 (Simulation time: 07 hr 07 min 23 sec)
Heartbeat CPU 7 instructions: 250000007 cycles: 62511254 heartbeat IPC: 4 cumulative IPC: 3.999 (Simulation time: 07 hr 07 min 23 sec)
Heartbeat CPU 15 instructions: 250000003 cycles: 62511340 heartbeat IPC: 4 cumulative IPC: 3.999 (Simulation time: 07 hr 07 min 23 sec)
Heartbeat CPU 2 instructions: 250000006 cycles: 62512866 heartbeat IPC: 4 cumulative IPC: 3.999 (Simulation time: 07 hr 07 min 23 sec)
Heartbeat CPU 10 instructions: 250000006 cycles: 62513049 heartbeat IPC: 4 cumulative IPC: 3.999 (Simulation time: 07 hr 07 min 23 sec)
Heartbeat CPU 4 instructions: 260000006 cycles: 65010914 heartbeat IPC: 4 cumulative IPC: 3.999 (Simulation time: 07 hr 25 min 10 sec)
Heartbeat CPU 11 instructions: 260000008 cycles: 65010995 heartbeat IPC: 4 cumulative IPC: 3.999 (Simulation time: 07 hr 25 min 10 sec)
Heartbeat CPU 3 instructions: 260000008 cycles: 65010996 heartbeat IPC: 4 cumulative IPC: 3.999 (Simulation time: 07 hr 25 min 10 sec)
Heartbeat CPU 13 instructions: 260000009 cycles: 65010998 heartbeat IPC: 4 cumulative IPC: 3.999 (Simulation time: 07 hr 25 min 10 sec)
Heartbeat CPU 5 instructions: 260000005 cycles: 65011029 heartbeat IPC: 4 cumulative IPC: 3.999 (Simulation time: 07 hr 25 min 10 sec)
Heartbeat CPU 12 instructions: 260000006 cycles: 65011103 heartbeat IPC: 4 cumulative IPC: 3.999 (Simulation time: 07 hr 25 min 11 sec)
Heartbeat CPU 14 instructions: 260000006 cycles: 65011232 heartbeat IPC: 4 cumulative IPC: 3.999 (Simulation time: 07 hr 25 min 11 sec)
Heartbeat CPU 6 instructions: 260000006 cycles: 65011236 heartbeat IPC: 4 cumulative IPC: 3.999 (Simulation time: 07 hr 25 min 11 sec)
Heartbeat CPU 7 instructions: 260000007 cycles: 65011254 heartbeat IPC: 4 cumulative IPC: 3.999 (Simulation time: 07 hr 25 min 11 sec)
Heartbeat CPU 15 instructions: 260000003 cycles: 65011340 heartbeat IPC: 4 cumulative IPC: 3.999 (Simulation time: 07 hr 25 min 11 sec)
Heartbeat CPU 2 instructions: 260000006 cycles: 65012866 heartbeat IPC: 4 cumulative IPC: 3.999 (Simulation time: 07 hr 25 min 11 sec)
Heartbeat CPU 10 instructions: 260000006 cycles: 65013049 heartbeat IPC: 4 cumulative IPC: 3.999 (Simulation time: 07 hr 25 min 11 sec)
Heartbeat CPU 1 instructions: 150000020 cycles: 65175772 heartbeat IPC: 2.382 cumulative IPC: 2.301 (Simulation time: 07 hr 26 min 21 sec)
Heartbeat CPU 9 instructions: 150000020 cycles: 65176754 heartbeat IPC: 2.382 cumulative IPC: 2.301 (Simulation time: 07 hr 26 min 22 sec)
Heartbeat CPU 4 instructions: 270000006 cycles: 67510914 heartbeat IPC: 4 cumulative IPC: 3.999 (Simulation time: 07 hr 42 min 27 sec)
Heartbeat CPU 11 instructions: 270000008 cycles: 67510995 heartbeat IPC: 4 cumulative IPC: 3.999 (Simulation time: 07 hr 42 min 27 sec)
Heartbeat CPU 3 instructions: 270000008 cycles: 67510996 heartbeat IPC: 4 cumulative IPC: 3.999 (Simulation time: 07 hr 42 min 27 sec)
Heartbeat CPU 13 instructions: 270000009 cycles: 67510998 heartbeat IPC: 4 cumulative IPC: 3.999 (Simulation time: 07 hr 42 min 27 sec)
Heartbeat CPU 5 instructions: 270000005 cycles: 67511029 heartbeat IPC: 4 cumulative IPC: 3.999 (Simulation time: 07 hr 42 min 27 sec)
Heartbeat CPU 12 instructions: 270000006 cycles: 67511103 heartbeat IPC: 4 cumulative IPC: 3.999 (Simulation time: 07 hr 42 min 27 sec)
Heartbeat CPU 14 instructions: 270000006 cycles: 67511232 heartbeat IPC: 4 cumulative IPC: 3.999 (Simulation time: 07 hr 42 min 27 sec)
Heartbeat CPU 6 instructions: 270000006 cycles: 67511236 heartbeat IPC: 4 cumulative IPC: 3.999 (Simulation time: 07 hr 42 min 27 sec)
Heartbeat CPU 7 instructions: 270000007 cycles: 67511254 heartbeat IPC: 4 cumulative IPC: 3.999 (Simulation time: 07 hr 42 min 27 sec)
Heartbeat CPU 15 instructions: 270000003 cycles: 67511340 heartbeat IPC: 4 cumulative IPC: 3.999 (Simulation time: 07 hr 42 min 27 sec)
Heartbeat CPU 2 instructions: 270000006 cycles: 67512866 heartbeat IPC: 4 cumulative IPC: 3.999 (Simulation time: 07 hr 42 min 28 sec)
Heartbeat CPU 10 instructions: 270000006 cycles: 67513049 heartbeat IPC: 4 cumulative IPC: 3.999 (Simulation time: 07 hr 42 min 28 sec)
*** Reached end of trace: (2, "/home/harshraj/COALESCE-Hashed-Perceptron-Cache-Replacement-Policy/simulator/traces/ocean_8t/ocean2.champsimtrace")
*** Reached end of trace: (10, "/home/harshraj/COALESCE-Hashed-Perceptron-Cache-Replacement-Policy/simulator/traces/ocean_8t/ocean2.champsimtrace")
*** Reached end of trace: (13, "/home/harshraj/COALESCE-Hashed-Perceptron-Cache-Replacement-Policy/simulator/traces/ocean_8t/ocean5.champsimtrace")
*** Reached end of trace: (5, "/home/harshraj/COALESCE-Hashed-Perceptron-Cache-Replacement-Policy/simulator/traces/ocean_8t/ocean5.champsimtrace")
*** Reached end of trace: (4, "/home/harshraj/COALESCE-Hashed-Perceptron-Cache-Replacement-Policy/simulator/traces/ocean_8t/ocean4.champsimtrace")
*** Reached end of trace: (12, "/home/harshraj/COALESCE-Hashed-Perceptron-Cache-Replacement-Policy/simulator/traces/ocean_8t/ocean4.champsimtrace")
*** Reached end of trace: (14, "/home/harshraj/COALESCE-Hashed-Perceptron-Cache-Replacement-Policy/simulator/traces/ocean_8t/ocean6.champsimtrace")
*** Reached end of trace: (6, "/home/harshraj/COALESCE-Hashed-Perceptron-Cache-Replacement-Policy/simulator/traces/ocean_8t/ocean6.champsimtrace")
*** Reached end of trace: (11, "/home/harshraj/COALESCE-Hashed-Perceptron-Cache-Replacement-Policy/simulator/traces/ocean_8t/ocean3.champsimtrace")
*** Reached end of trace: (3, "/home/harshraj/COALESCE-Hashed-Perceptron-Cache-Replacement-Policy/simulator/traces/ocean_8t/ocean3.champsimtrace")
*** Reached end of trace: (7, "/home/harshraj/COALESCE-Hashed-Perceptron-Cache-Replacement-Policy/simulator/traces/ocean_8t/ocean7.champsimtrace")
*** Reached end of trace: (15, "/home/harshraj/COALESCE-Hashed-Perceptron-Cache-Replacement-Policy/simulator/traces/ocean_8t/ocean7.champsimtrace")
Heartbeat CPU 9 instructions: 160000022 cycles: 69291822 heartbeat IPC: 2.43 cumulative IPC: 2.309 (Simulation time: 07 hr 54 min 58 sec)
Heartbeat CPU 1 instructions: 160000022 cycles: 69291823 heartbeat IPC: 2.43 cumulative IPC: 2.309 (Simulation time: 07 hr 54 min 58 sec)
Heartbeat CPU 4 instructions: 280000006 cycles: 70010914 heartbeat IPC: 4 cumulative IPC: 3.999 (Simulation time: 08 hr 00 min 27 sec)
Heartbeat CPU 11 instructions: 280000008 cycles: 70010995 heartbeat IPC: 4 cumulative IPC: 3.999 (Simulation time: 08 hr 00 min 27 sec)
Heartbeat CPU 3 instructions: 280000008 cycles: 70010996 heartbeat IPC: 4 cumulative IPC: 3.999 (Simulation time: 08 hr 00 min 27 sec)
Heartbeat CPU 13 instructions: 280000009 cycles: 70010998 heartbeat IPC: 4 cumulative IPC: 3.999 (Simulation time: 08 hr 00 min 27 sec)
Heartbeat CPU 5 instructions: 280000005 cycles: 70011029 heartbeat IPC: 4 cumulative IPC: 3.999 (Simulation time: 08 hr 00 min 27 sec)
Heartbeat CPU 12 instructions: 280000006 cycles: 70011103 heartbeat IPC: 4 cumulative IPC: 3.999 (Simulation time: 08 hr 00 min 27 sec)
Heartbeat CPU 14 instructions: 280000006 cycles: 70011232 heartbeat IPC: 4 cumulative IPC: 3.999 (Simulation time: 08 hr 00 min 27 sec)
Heartbeat CPU 6 instructions: 280000006 cycles: 70011236 heartbeat IPC: 4 cumulative IPC: 3.999 (Simulation time: 08 hr 00 min 27 sec)
Heartbeat CPU 7 instructions: 280000007 cycles: 70011254 heartbeat IPC: 4 cumulative IPC: 3.999 (Simulation time: 08 hr 00 min 27 sec)
Heartbeat CPU 15 instructions: 280000003 cycles: 70011340 heartbeat IPC: 4 cumulative IPC: 3.999 (Simulation time: 08 hr 00 min 27 sec)
Heartbeat CPU 2 instructions: 280000006 cycles: 70012866 heartbeat IPC: 4 cumulative IPC: 3.999 (Simulation time: 08 hr 00 min 28 sec)
Heartbeat CPU 10 instructions: 280000006 cycles: 70013049 heartbeat IPC: 4 cumulative IPC: 3.999 (Simulation time: 08 hr 00 min 28 sec)
Heartbeat CPU 4 instructions: 290000006 cycles: 72510914 heartbeat IPC: 4 cumulative IPC: 3.999 (Simulation time: 08 hr 17 min 26 sec)
Heartbeat CPU 11 instructions: 290000008 cycles: 72510995 heartbeat IPC: 4 cumulative IPC: 3.999 (Simulation time: 08 hr 17 min 26 sec)
Heartbeat CPU 3 instructions: 290000008 cycles: 72510996 heartbeat IPC: 4 cumulative IPC: 3.999 (Simulation time: 08 hr 17 min 26 sec)
Heartbeat CPU 13 instructions: 290000009 cycles: 72510998 heartbeat IPC: 4 cumulative IPC: 3.999 (Simulation time: 08 hr 17 min 26 sec)
Heartbeat CPU 5 instructions: 290000005 cycles: 72511029 heartbeat IPC: 4 cumulative IPC: 3.999 (Simulation time: 08 hr 17 min 26 sec)
Heartbeat CPU 12 instructions: 290000006 cycles: 72511103 heartbeat IPC: 4 cumulative IPC: 3.999 (Simulation time: 08 hr 17 min 26 sec)
Heartbeat CPU 14 instructions: 290000006 cycles: 72511232 heartbeat IPC: 4 cumulative IPC: 3.999 (Simulation time: 08 hr 17 min 27 sec)
Heartbeat CPU 6 instructions: 290000006 cycles: 72511236 heartbeat IPC: 4 cumulative IPC: 3.999 (Simulation time: 08 hr 17 min 27 sec)
Heartbeat CPU 7 instructions: 290000007 cycles: 72511254 heartbeat IPC: 4 cumulative IPC: 3.999 (Simulation time: 08 hr 17 min 27 sec)
Heartbeat CPU 15 instructions: 290000003 cycles: 72511340 heartbeat IPC: 4 cumulative IPC: 3.999 (Simulation time: 08 hr 17 min 27 sec)
Heartbeat CPU 2 instructions: 290000006 cycles: 72512866 heartbeat IPC: 4 cumulative IPC: 3.999 (Simulation time: 08 hr 17 min 27 sec)
Heartbeat CPU 10 instructions: 290000006 cycles: 72513049 heartbeat IPC: 4 cumulative IPC: 3.999 (Simulation time: 08 hr 17 min 27 sec)
Heartbeat CPU 9 instructions: 170000022 cycles: 74862038 heartbeat IPC: 1.795 cumulative IPC: 2.271 (Simulation time: 08 hr 33 min 55 sec)
Heartbeat CPU 1 instructions: 170000022 cycles: 74862039 heartbeat IPC: 1.795 cumulative IPC: 2.271 (Simulation time: 08 hr 33 min 55 sec)
Heartbeat CPU 4 instructions: 300000006 cycles: 75010914 heartbeat IPC: 4 cumulative IPC: 3.999 (Simulation time: 08 hr 34 min 48 sec)
Heartbeat CPU 11 instructions: 300000008 cycles: 75010995 heartbeat IPC: 4 cumulative IPC: 3.999 (Simulation time: 08 hr 34 min 48 sec)
Heartbeat CPU 3 instructions: 300000008 cycles: 75010996 heartbeat IPC: 4 cumulative IPC: 3.999 (Simulation time: 08 hr 34 min 48 sec)
Heartbeat CPU 13 instructions: 300000009 cycles: 75010998 heartbeat IPC: 4 cumulative IPC: 3.999 (Simulation time: 08 hr 34 min 48 sec)
Heartbeat CPU 5 instructions: 300000005 cycles: 75011029 heartbeat IPC: 4 cumulative IPC: 3.999 (Simulation time: 08 hr 34 min 48 sec)
Heartbeat CPU 12 instructions: 300000006 cycles: 75011103 heartbeat IPC: 4 cumulative IPC: 3.999 (Simulation time: 08 hr 34 min 48 sec)
Heartbeat CPU 14 instructions: 300000006 cycles: 75011232 heartbeat IPC: 4 cumulative IPC: 3.999 (Simulation time: 08 hr 34 min 48 sec)
Heartbeat CPU 6 instructions: 300000006 cycles: 75011236 heartbeat IPC: 4 cumulative IPC: 3.999 (Simulation time: 08 hr 34 min 48 sec)
Heartbeat CPU 7 instructions: 300000007 cycles: 75011254 heartbeat IPC: 4 cumulative IPC: 3.999 (Simulation time: 08 hr 34 min 48 sec)
Heartbeat CPU 15 instructions: 300000003 cycles: 75011340 heartbeat IPC: 4 cumulative IPC: 3.999 (Simulation time: 08 hr 34 min 48 sec)
Heartbeat CPU 2 instructions: 300000006 cycles: 75012866 heartbeat IPC: 4 cumulative IPC: 3.999 (Simulation time: 08 hr 34 min 49 sec)
Heartbeat CPU 10 instructions: 300000006 cycles: 75013049 heartbeat IPC: 4 cumulative IPC: 3.999 (Simulation time: 08 hr 34 min 49 sec)
Heartbeat CPU 4 instructions: 310000006 cycles: 77510914 heartbeat IPC: 4 cumulative IPC: 3.999 (Simulation time: 08 hr 51 min 53 sec)
Heartbeat CPU 11 instructions: 310000008 cycles: 77510995 heartbeat IPC: 4 cumulative IPC: 3.999 (Simulation time: 08 hr 51 min 53 sec)
Heartbeat CPU 3 instructions: 310000008 cycles: 77510996 heartbeat IPC: 4 cumulative IPC: 3.999 (Simulation time: 08 hr 51 min 53 sec)
Heartbeat CPU 13 instructions: 310000009 cycles: 77510998 heartbeat IPC: 4 cumulative IPC: 3.999 (Simulation time: 08 hr 51 min 53 sec)
Heartbeat CPU 5 instructions: 310000005 cycles: 77511029 heartbeat IPC: 4 cumulative IPC: 3.999 (Simulation time: 08 hr 51 min 53 sec)
Heartbeat CPU 12 instructions: 310000006 cycles: 77511103 heartbeat IPC: 4 cumulative IPC: 3.999 (Simulation time: 08 hr 51 min 53 sec)
Heartbeat CPU 14 instructions: 310000006 cycles: 77511232 heartbeat IPC: 4 cumulative IPC: 3.999 (Simulation time: 08 hr 51 min 53 sec)
Heartbeat CPU 6 instructions: 310000006 cycles: 77511236 heartbeat IPC: 4 cumulative IPC: 3.999 (Simulation time: 08 hr 51 min 53 sec)
Heartbeat CPU 7 instructions: 310000007 cycles: 77511254 heartbeat IPC: 4 cumulative IPC: 3.999 (Simulation time: 08 hr 51 min 53 sec)
Heartbeat CPU 15 instructions: 310000003 cycles: 77511340 heartbeat IPC: 4 cumulative IPC: 3.999 (Simulation time: 08 hr 51 min 53 sec)
Heartbeat CPU 2 instructions: 310000006 cycles: 77512866 heartbeat IPC: 4 cumulative IPC: 3.999 (Simulation time: 08 hr 51 min 53 sec)
Heartbeat CPU 10 instructions: 310000006 cycles: 77513049 heartbeat IPC: 4 cumulative IPC: 3.999 (Simulation time: 08 hr 51 min 54 sec)
Heartbeat CPU 1 instructions: 180000025 cycles: 78403947 heartbeat IPC: 2.823 cumulative IPC: 2.296 (Simulation time: 08 hr 57 min 59 sec)
Heartbeat CPU 9 instructions: 180000025 cycles: 78403947 heartbeat IPC: 2.823 cumulative IPC: 2.296 (Simulation time: 08 hr 57 min 59 sec)
*** Reached end of trace: (2, "/home/harshraj/COALESCE-Hashed-Perceptron-Cache-Replacement-Policy/simulator/traces/ocean_8t/ocean2.champsimtrace")
*** Reached end of trace: (10, "/home/harshraj/COALESCE-Hashed-Perceptron-Cache-Replacement-Policy/simulator/traces/ocean_8t/ocean2.champsimtrace")
*** Reached end of trace: (9, "/home/harshraj/COALESCE-Hashed-Perceptron-Cache-Replacement-Policy/simulator/traces/ocean_8t/ocean1.champsimtrace")
*** Reached end of trace: (1, "/home/harshraj/COALESCE-Hashed-Perceptron-Cache-Replacement-Policy/simulator/traces/ocean_8t/ocean1.champsimtrace")
*** Reached end of trace: (13, "/home/harshraj/COALESCE-Hashed-Perceptron-Cache-Replacement-Policy/simulator/traces/ocean_8t/ocean5.champsimtrace")
*** Reached end of trace: (5, "/home/harshraj/COALESCE-Hashed-Perceptron-Cache-Replacement-Policy/simulator/traces/ocean_8t/ocean5.champsimtrace")
*** Reached end of trace: (4, "/home/harshraj/COALESCE-Hashed-Perceptron-Cache-Replacement-Policy/simulator/traces/ocean_8t/ocean4.champsimtrace")
*** Reached end of trace: (12, "/home/harshraj/COALESCE-Hashed-Perceptron-Cache-Replacement-Policy/simulator/traces/ocean_8t/ocean4.champsimtrace")
*** Reached end of trace: (14, "/home/harshraj/COALESCE-Hashed-Perceptron-Cache-Replacement-Policy/simulator/traces/ocean_8t/ocean6.champsimtrace")
*** Reached end of trace: (6, "/home/harshraj/COALESCE-Hashed-Perceptron-Cache-Replacement-Policy/simulator/traces/ocean_8t/ocean6.champsimtrace")
*** Reached end of trace: (11, "/home/harshraj/COALESCE-Hashed-Perceptron-Cache-Replacement-Policy/simulator/traces/ocean_8t/ocean3.champsimtrace")
*** Reached end of trace: (3, "/home/harshraj/COALESCE-Hashed-Perceptron-Cache-Replacement-Policy/simulator/traces/ocean_8t/ocean3.champsimtrace")
*** Reached end of trace: (7, "/home/harshraj/COALESCE-Hashed-Perceptron-Cache-Replacement-Policy/simulator/traces/ocean_8t/ocean7.champsimtrace")
*** Reached end of trace: (15, "/home/harshraj/COALESCE-Hashed-Perceptron-Cache-Replacement-Policy/simulator/traces/ocean_8t/ocean7.champsimtrace")
Heartbeat CPU 4 instructions: 320000006 cycles: 80010914 heartbeat IPC: 4 cumulative IPC: 3.999 (Simulation time: 09 hr 09 min 36 sec)
Heartbeat CPU 11 instructions: 320000008 cycles: 80010995 heartbeat IPC: 4 cumulative IPC: 3.999 (Simulation time: 09 hr 09 min 36 sec)
Heartbeat CPU 3 instructions: 320000008 cycles: 80010996 heartbeat IPC: 4 cumulative IPC: 3.999 (Simulation time: 09 hr 09 min 36 sec)
Heartbeat CPU 13 instructions: 320000009 cycles: 80010998 heartbeat IPC: 4 cumulative IPC: 3.999 (Simulation time: 09 hr 09 min 36 sec)
Heartbeat CPU 5 instructions: 320000005 cycles: 80011029 heartbeat IPC: 4 cumulative IPC: 3.999 (Simulation time: 09 hr 09 min 36 sec)
Heartbeat CPU 12 instructions: 320000006 cycles: 80011103 heartbeat IPC: 4 cumulative IPC: 3.999 (Simulation time: 09 hr 09 min 36 sec)
Heartbeat CPU 14 instructions: 320000006 cycles: 80011232 heartbeat IPC: 4 cumulative IPC: 3.999 (Simulation time: 09 hr 09 min 36 sec)
Heartbeat CPU 6 instructions: 320000006 cycles: 80011236 heartbeat IPC: 4 cumulative IPC: 3.999 (Simulation time: 09 hr 09 min 36 sec)
Heartbeat CPU 7 instructions: 320000007 cycles: 80011254 heartbeat IPC: 4 cumulative IPC: 3.999 (Simulation time: 09 hr 09 min 36 sec)
Heartbeat CPU 15 instructions: 320000003 cycles: 80011340 heartbeat IPC: 4 cumulative IPC: 3.999 (Simulation time: 09 hr 09 min 36 sec)
Heartbeat CPU 2 instructions: 320000006 cycles: 80012866 heartbeat IPC: 4 cumulative IPC: 3.999 (Simulation time: 09 hr 09 min 37 sec)
Heartbeat CPU 10 instructions: 320000006 cycles: 80013049 heartbeat IPC: 4 cumulative IPC: 3.999 (Simulation time: 09 hr 09 min 37 sec)
Heartbeat CPU 1 instructions: 190000028 cycles: 82399372 heartbeat IPC: 2.503 cumulative IPC: 2.306 (Simulation time: 09 hr 25 min 44 sec)
Heartbeat CPU 9 instructions: 190000028 cycles: 82412525 heartbeat IPC: 2.495 cumulative IPC: 2.305 (Simulation time: 09 hr 25 min 49 sec)
Heartbeat CPU 4 instructions: 330000006 cycles: 82510914 heartbeat IPC: 4 cumulative IPC: 3.999 (Simulation time: 09 hr 26 min 30 sec)
Heartbeat CPU 11 instructions: 330000008 cycles: 82510995 heartbeat IPC: 4 cumulative IPC: 3.999 (Simulation time: 09 hr 26 min 30 sec)
Heartbeat CPU 3 instructions: 330000008 cycles: 82510996 heartbeat IPC: 4 cumulative IPC: 3.999 (Simulation time: 09 hr 26 min 30 sec)
Heartbeat CPU 13 instructions: 330000009 cycles: 82510998 heartbeat IPC: 4 cumulative IPC: 3.999 (Simulation time: 09 hr 26 min 30 sec)
Heartbeat CPU 5 instructions: 330000005 cycles: 82511029 heartbeat IPC: 4 cumulative IPC: 3.999 (Simulation time: 09 hr 26 min 30 sec)
Heartbeat CPU 12 instructions: 330000006 cycles: 82511103 heartbeat IPC: 4 cumulative IPC: 3.999 (Simulation time: 09 hr 26 min 30 sec)
Heartbeat CPU 14 instructions: 330000006 cycles: 82511232 heartbeat IPC: 4 cumulative IPC: 3.999 (Simulation time: 09 hr 26 min 30 sec)
Heartbeat CPU 6 instructions: 330000006 cycles: 82511236 heartbeat IPC: 4 cumulative IPC: 3.999 (Simulation time: 09 hr 26 min 30 sec)
Heartbeat CPU 7 instructions: 330000007 cycles: 82511254 heartbeat IPC: 4 cumulative IPC: 3.999 (Simulation time: 09 hr 26 min 30 sec)
Heartbeat CPU 15 instructions: 330000003 cycles: 82511340 heartbeat IPC: 4 cumulative IPC: 3.999 (Simulation time: 09 hr 26 min 30 sec)
Heartbeat CPU 2 instructions: 330000006 cycles: 82512866 heartbeat IPC: 4 cumulative IPC: 3.999 (Simulation time: 09 hr 26 min 31 sec)
Heartbeat CPU 10 instructions: 330000006 cycles: 82513049 heartbeat IPC: 4 cumulative IPC: 3.999 (Simulation time: 09 hr 26 min 31 sec)
Heartbeat CPU 8 instructions: 40000006 cycles: 84252068 heartbeat IPC: 0.4456 cumulative IPC: 0.4748 (Simulation time: 09 hr 38 min 45 sec)
Heartbeat CPU 0 instructions: 40000005 cycles: 84254097 heartbeat IPC: 0.4458 cumulative IPC: 0.4748 (Simulation time: 09 hr 38 min 45 sec)
Heartbeat CPU 4 instructions: 340000006 cycles: 85010914 heartbeat IPC: 4 cumulative IPC: 3.999 (Simulation time: 09 hr 44 min 13 sec)
Heartbeat CPU 11 instructions: 340000008 cycles: 85010995 heartbeat IPC: 4 cumulative IPC: 3.999 (Simulation time: 09 hr 44 min 13 sec)
Heartbeat CPU 3 instructions: 340000008 cycles: 85010996 heartbeat IPC: 4 cumulative IPC: 3.999 (Simulation time: 09 hr 44 min 13 sec)
Heartbeat CPU 13 instructions: 340000009 cycles: 85010998 heartbeat IPC: 4 cumulative IPC: 3.999 (Simulation time: 09 hr 44 min 13 sec)
Heartbeat CPU 5 instructions: 340000005 cycles: 85011029 heartbeat IPC: 4 cumulative IPC: 3.999 (Simulation time: 09 hr 44 min 13 sec)
Heartbeat CPU 12 instructions: 340000006 cycles: 85011103 heartbeat IPC: 4 cumulative IPC: 3.999 (Simulation time: 09 hr 44 min 13 sec)
Heartbeat CPU 14 instructions: 340000006 cycles: 85011232 heartbeat IPC: 4 cumulative IPC: 3.999 (Simulation time: 09 hr 44 min 13 sec)
Heartbeat CPU 6 instructions: 340000006 cycles: 85011236 heartbeat IPC: 4 cumulative IPC: 3.999 (Simulation time: 09 hr 44 min 13 sec)
Heartbeat CPU 7 instructions: 340000007 cycles: 85011254 heartbeat IPC: 4 cumulative IPC: 3.999 (Simulation time: 09 hr 44 min 13 sec)
Heartbeat CPU 15 instructions: 340000003 cycles: 85011340 heartbeat IPC: 4 cumulative IPC: 3.999 (Simulation time: 09 hr 44 min 13 sec)
Heartbeat CPU 2 instructions: 340000006 cycles: 85012866 heartbeat IPC: 4 cumulative IPC: 3.999 (Simulation time: 09 hr 44 min 14 sec)
Heartbeat CPU 10 instructions: 340000006 cycles: 85013049 heartbeat IPC: 4 cumulative IPC: 3.999 (Simulation time: 09 hr 44 min 14 sec)
Heartbeat CPU 1 instructions: 200000028 cycles: 86502417 heartbeat IPC: 2.437 cumulative IPC: 2.312 (Simulation time: 09 hr 53 min 20 sec)
Heartbeat CPU 9 instructions: 200000028 cycles: 86516277 heartbeat IPC: 2.437 cumulative IPC: 2.312 (Simulation time: 09 hr 53 min 27 sec)
Heartbeat CPU 4 instructions: 350000006 cycles: 87510914 heartbeat IPC: 4 cumulative IPC: 4 (Simulation time: 10 hr 01 min 13 sec)
Heartbeat CPU 11 instructions: 350000008 cycles: 87510995 heartbeat IPC: 4 cumulative IPC: 3.999 (Simulation time: 10 hr 01 min 13 sec)
Heartbeat CPU 3 instructions: 350000008 cycles: 87510996 heartbeat IPC: 4 cumulative IPC: 3.999 (Simulation time: 10 hr 01 min 13 sec)
Heartbeat CPU 13 instructions: 350000009 cycles: 87510998 heartbeat IPC: 4 cumulative IPC: 3.999 (Simulation time: 10 hr 01 min 13 sec)
Heartbeat CPU 5 instructions: 350000005 cycles: 87511029 heartbeat IPC: 4 cumulative IPC: 3.999 (Simulation time: 10 hr 01 min 13 sec)
Heartbeat CPU 12 instructions: 350000006 cycles: 87511103 heartbeat IPC: 4 cumulative IPC: 3.999 (Simulation time: 10 hr 01 min 13 sec)
Heartbeat CPU 14 instructions: 350000006 cycles: 87511232 heartbeat IPC: 4 cumulative IPC: 3.999 (Simulation time: 10 hr 01 min 13 sec)
Heartbeat CPU 6 instructions: 350000006 cycles: 87511236 heartbeat IPC: 4 cumulative IPC: 3.999 (Simulation time: 10 hr 01 min 13 sec)
Heartbeat CPU 7 instructions: 350000007 cycles: 87511254 heartbeat IPC: 4 cumulative IPC: 3.999 (Simulation time: 10 hr 01 min 13 sec)
Heartbeat CPU 15 instructions: 350000003 cycles: 87511340 heartbeat IPC: 4 cumulative IPC: 3.999 (Simulation time: 10 hr 01 min 13 sec)
Heartbeat CPU 2 instructions: 350000006 cycles: 87512866 heartbeat IPC: 4 cumulative IPC: 3.999 (Simulation time: 10 hr 01 min 14 sec)
Heartbeat CPU 10 instructions: 350000006 cycles: 87513049 heartbeat IPC: 4 cumulative IPC: 3.999 (Simulation time: 10 hr 01 min 14 sec)
Heartbeat CPU 4 instructions: 360000006 cycles: 90010914 heartbeat IPC: 4 cumulative IPC: 4 (Simulation time: 10 hr 19 min 28 sec)
Heartbeat CPU 11 instructions: 360000008 cycles: 90010995 heartbeat IPC: 4 cumulative IPC: 4 (Simulation time: 10 hr 19 min 28 sec)
Heartbeat CPU 3 instructions: 360000008 cycles: 90010996 heartbeat IPC: 4 cumulative IPC: 4 (Simulation time: 10 hr 19 min 28 sec)
Heartbeat CPU 13 instructions: 360000009 cycles: 90010998 heartbeat IPC: 4 cumulative IPC: 4 (Simulation time: 10 hr 19 min 28 sec)
Heartbeat CPU 5 instructions: 360000005 cycles: 90011029 heartbeat IPC: 4 cumulative IPC: 4 (Simulation time: 10 hr 19 min 28 sec)
Heartbeat CPU 12 instructions: 360000006 cycles: 90011103 heartbeat IPC: 4 cumulative IPC: 4 (Simulation time: 10 hr 19 min 28 sec)
[...]
cpu12->cpu12_STLB LOAD         ACCESS:        781 HIT:        781 MISS:          0 MSHR_MERGE:          0
cpu12->cpu12_STLB RFO          ACCESS:          0 HIT:          0 MISS:          0 MSHR_MERGE:          0
cpu12->cpu12_STLB PREFETCH     ACCESS:          0 HIT:          0 MISS:          0 MSHR_MERGE:          0
cpu12->cpu12_STLB WRITE        ACCESS:          0 HIT:          0 MISS:          0 MSHR_MERGE:          0
cpu12->cpu12_STLB TRANSLATION  ACCESS:          0 HIT:          0 MISS:          0 MSHR_MERGE:          0
cpu12->cpu12_STLB PREFETCH REQUESTED:          0 ISSUED:          0 USEFUL:          0 USELESS:          0
cpu12->cpu12_STLB AVERAGE MISS LATENCY: - cycles
cpu12_STLB COHERENCE INVALIDATIONS:          0
cpu12_STLB COHERENCE WRITE-HIT OTHER-SHARER EVENTS:          0
cpu12->cpu12_L2C TOTAL        ACCESS:      42339 HIT:      42339 MISS:          0 MSHR_MERGE:          0
cpu12->cpu12_L2C LOAD         ACCESS:      42339 HIT:      42339 MISS:          0 MSHR_MERGE:          0
cpu12->cpu12_L2C RFO          ACCESS:          0 HIT:          0 MISS:          0 MSHR_MERGE:          0
cpu12->cpu12_L2C PREFETCH     ACCESS:          0 HIT:          0 MISS:          0 MSHR_MERGE:          0
cpu12->cpu12_L2C WRITE        ACCESS:          0 HIT:          0 MISS:          0 MSHR_MERGE:          0
cpu12->cpu12_L2C TRANSLATION  ACCESS:          0 HIT:          0 MISS:          0 MSHR_MERGE:          0
cpu12->cpu12_L2C PREFETCH REQUESTED:          0 ISSUED:          0 USEFUL:          0 USELESS:          0
cpu12->cpu12_L2C AVERAGE MISS LATENCY: - cycles
cpu12_L2C COHERENCE INVALIDATIONS:          0
cpu12_L2C COHERENCE WRITE-HIT OTHER-SHARER EVENTS:          0
cpu12->cpu12_L1I TOTAL        ACCESS:  395965769 HIT:  395898183 MISS:      67586 MSHR_MERGE:      25247
cpu12->cpu12_L1I LOAD         ACCESS:  395965769 HIT:  395898183 MISS:      67586 MSHR_MERGE:      25247
cpu12->cpu12_L1I RFO          ACCESS:          0 HIT:          0 MISS:          0 MSHR_MERGE:          0
cpu12->cpu12_L1I PREFETCH     ACCESS:          0 HIT:          0 MISS:          0 MSHR_MERGE:          0
cpu12->cpu12_L1I WRITE        ACCESS:          0 HIT:          0 MISS:          0 MSHR_MERGE:          0
cpu12->cpu12_L1I TRANSLATION  ACCESS:          0 HIT:          0 MISS:          0 MSHR_MERGE:          0
cpu12->cpu12_L1I PREFETCH REQUESTED:          0 ISSUED:          0 USEFUL:          0 USELESS:          0
cpu12->cpu12_L1I AVERAGE MISS LATENCY: 7.2 cycles
cpu12_L1I COHERENCE INVALIDATIONS:          0
cpu12_L1I COHERENCE WRITE-HIT OTHER-SHARER EVENTS:          0
cpu12_L1D COHERENCE INVALIDATIONS:          0
cpu12_L1D COHERENCE WRITE-HIT OTHER-SHARER EVENTS:          0
cpu12->cpu12_ITLB TOTAL        ACCESS:  313040658 HIT:  313039043 MISS:       1615 MSHR_MERGE:        834
cpu12->cpu12_ITLB LOAD         ACCESS:  313040658 HIT:  313039043 MISS:       1615 MSHR_MERGE:        834
cpu12->cpu12_ITLB RFO          ACCESS:          0 HIT:          0 MISS:          0 MSHR_MERGE:          0
cpu12->cpu12_ITLB PREFETCH     ACCESS:          0 HIT:          0 MISS:          0 MSHR_MERGE:          0
cpu12->cpu12_ITLB WRITE        ACCESS:          0 HIT:          0 MISS:          0 MSHR_MERGE:          0
cpu12->cpu12_ITLB TRANSLATION  ACCESS:          0 HIT:          0 MISS:          0 MSHR_MERGE:          0
cpu12->cpu12_ITLB PREFETCH REQUESTED:          0 ISSUED:          0 USEFUL:          0 USELESS:          0
cpu12->cpu12_ITLB AVERAGE MISS LATENCY: 4 cycles
cpu12_ITLB COHERENCE INVALIDATIONS:          0
cpu12_ITLB COHERENCE WRITE-HIT OTHER-SHARER EVENTS:          0
cpu12_DTLB COHERENCE INVALIDATIONS:          0
cpu12_DTLB COHERENCE WRITE-HIT OTHER-SHARER EVENTS:          0
cpu11->cpu11_STLB TOTAL        ACCESS:        880 HIT:        880 MISS:          0 MSHR_MERGE:          0
cpu11->cpu11_STLB LOAD         ACCESS:        880 HIT:        880 MISS:          0 MSHR_MERGE:          0
cpu11->cpu11_STLB RFO          ACCESS:          0 HIT:          0 MISS:          0 MSHR_MERGE:          0
cpu11->cpu11_STLB PREFETCH     ACCESS:          0 HIT:          0 MISS:          0 MSHR_MERGE:          0
cpu11->cpu11_STLB WRITE        ACCESS:          0 HIT:          0 MISS:          0 MSHR_MERGE:          0
cpu11->cpu11_STLB TRANSLATION  ACCESS:          0 HIT:          0 MISS:          0 MSHR_MERGE:          0
cpu11->cpu11_STLB PREFETCH REQUESTED:          0 ISSUED:          0 USEFUL:          0 USELESS:          0
cpu11->cpu11_STLB AVERAGE MISS LATENCY: - cycles
cpu11_STLB COHERENCE INVALIDATIONS:          0
cpu11_STLB COHERENCE WRITE-HIT OTHER-SHARER EVENTS:          0
cpu11->cpu11_L2C TOTAL        ACCESS:      86712 HIT:      86712 MISS:          0 MSHR_MERGE:          0
cpu11->cpu11_L2C LOAD         ACCESS:      86712 HIT:      86712 MISS:          0 MSHR_MERGE:          0
cpu11->cpu11_L2C RFO          ACCESS:          0 HIT:          0 MISS:          0 MSHR_MERGE:          0
cpu11->cpu11_L2C PREFETCH     ACCESS:          0 HIT:          0 MISS:          0 MSHR_MERGE:          0
cpu11->cpu11_L2C WRITE        ACCESS:          0 HIT:          0 MISS:          0 MSHR_MERGE:          0
cpu11->cpu11_L2C TRANSLATION  ACCESS:          0 HIT:          0 MISS:          0 MSHR_MERGE:          0
cpu11->cpu11_L2C PREFETCH REQUESTED:          0 ISSUED:          0 USEFUL:          0 USELESS:          0
cpu11->cpu11_L2C AVERAGE MISS LATENCY: - cycles
cpu11_L2C COHERENCE INVALIDATIONS:          0
cpu11_L2C COHERENCE WRITE-HIT OTHER-SHARER EVENTS:          0
cpu11->cpu11_L1I TOTAL        ACCESS:  395393187 HIT:  395263146 MISS:     130041 MSHR_MERGE:      43329
cpu11->cpu11_L1I LOAD         ACCESS:  395393187 HIT:  395263146 MISS:     130041 MSHR_MERGE:      43329
cpu11->cpu11_L1I RFO          ACCESS:          0 HIT:          0 MISS:          0 MSHR_MERGE:          0
cpu11->cpu11_L1I PREFETCH     ACCESS:          0 HIT:          0 MISS:          0 MSHR_MERGE:          0
cpu11->cpu11_L1I WRITE        ACCESS:          0 HIT:          0 MISS:          0 MSHR_MERGE:          0
cpu11->cpu11_L1I TRANSLATION  ACCESS:          0 HIT:          0 MISS:          0 MSHR_MERGE:          0
cpu11->cpu11_L1I PREFETCH REQUESTED:          0 ISSUED:          0 USEFUL:          0 USELESS:          0
cpu11->cpu11_L1I AVERAGE MISS LATENCY: 7 cycles
cpu11_L1I COHERENCE INVALIDATIONS:          0
cpu11_L1I COHERENCE WRITE-HIT OTHER-SHARER EVENTS:          0
cpu11_L1D COHERENCE INVALIDATIONS:          0
cpu11_L1D COHERENCE WRITE-HIT OTHER-SHARER EVENTS:          0
cpu11->cpu11_ITLB TOTAL        ACCESS:  313121804 HIT:  313120154 MISS:       1650 MSHR_MERGE:        770
cpu11->cpu11_ITLB LOAD         ACCESS:  313121804 HIT:  313120154 MISS:       1650 MSHR_MERGE:        770
cpu11->cpu11_ITLB RFO          ACCESS:          0 HIT:          0 MISS:          0 MSHR_MERGE:          0
cpu11->cpu11_ITLB PREFETCH     ACCESS:          0 HIT:          0 MISS:          0 MSHR_MERGE:          0
cpu11->cpu11_ITLB WRITE        ACCESS:          0 HIT:          0 MISS:          0 MSHR_MERGE:          0
cpu11->cpu11_ITLB TRANSLATION  ACCESS:          0 HIT:          0 MISS:          0 MSHR_MERGE:          0
cpu11->cpu11_ITLB PREFETCH REQUESTED:          0 ISSUED:          0 USEFUL:          0 USELESS:          0
cpu11->cpu11_ITLB AVERAGE MISS LATENCY: 4 cycles
cpu11_ITLB COHERENCE INVALIDATIONS:          0
cpu11_ITLB COHERENCE WRITE-HIT OTHER-SHARER EVENTS:          0
cpu11_DTLB COHERENCE INVALIDATIONS:          0
cpu11_DTLB COHERENCE WRITE-HIT OTHER-SHARER EVENTS:          0
cpu10->cpu10_STLB TOTAL        ACCESS:        892 HIT:        892 MISS:          0 MSHR_MERGE:          0
cpu10->cpu10_STLB LOAD         ACCESS:        892 HIT:        892 MISS:          0 MSHR_MERGE:          0
cpu10->cpu10_STLB RFO          ACCESS:          0 HIT:          0 MISS:          0 MSHR_MERGE:          0
cpu10->cpu10_STLB PREFETCH     ACCESS:          0 HIT:          0 MISS:          0 MSHR_MERGE:          0
cpu10->cpu10_STLB WRITE        ACCESS:          0 HIT:          0 MISS:          0 MSHR_MERGE:          0
cpu10->cpu10_STLB TRANSLATION  ACCESS:          0 HIT:          0 MISS:          0 MSHR_MERGE:          0
cpu10->cpu10_STLB PREFETCH REQUESTED:          0 ISSUED:          0 USEFUL:          0 USELESS:          0
cpu10->cpu10_STLB AVERAGE MISS LATENCY: - cycles
cpu10_STLB COHERENCE INVALIDATIONS:          0
cpu10_STLB COHERENCE WRITE-HIT OTHER-SHARER EVENTS:          0
cpu10->cpu10_L2C TOTAL        ACCESS:      92149 HIT:      92149 MISS:          0 MSHR_MERGE:          0
cpu10->cpu10_L2C LOAD         ACCESS:      92149 HIT:      92149 MISS:          0 MSHR_MERGE:          0
cpu10->cpu10_L2C RFO          ACCESS:          0 HIT:          0 MISS:          0 MSHR_MERGE:          0
cpu10->cpu10_L2C PREFETCH     ACCESS:          0 HIT:          0 MISS:          0 MSHR_MERGE:          0
cpu10->cpu10_L2C WRITE        ACCESS:          0 HIT:          0 MISS:          0 MSHR_MERGE:          0
cpu10->cpu10_L2C TRANSLATION  ACCESS:          0 HIT:          0 MISS:          0 MSHR_MERGE:          0
cpu10->cpu10_L2C PREFETCH REQUESTED:          0 ISSUED:          0 USEFUL:          0 USELESS:          0
cpu10->cpu10_L2C AVERAGE MISS LATENCY: - cycles
cpu10_L2C COHERENCE INVALIDATIONS:          0
cpu10_L2C COHERENCE WRITE-HIT OTHER-SHARER EVENTS:          0
cpu10->cpu10_L1I TOTAL        ACCESS:  396149491 HIT:  396010077 MISS:     139414 MSHR_MERGE:      47265
cpu10->cpu10_L1I LOAD         ACCESS:  396149491 HIT:  396010077 MISS:     139414 MSHR_MERGE:      47265
cpu10->cpu10_L1I RFO          ACCESS:          0 HIT:          0 MISS:          0 MSHR_MERGE:          0
cpu10->cpu10_L1I PREFETCH     ACCESS:          0 HIT:          0 MISS:          0 MSHR_MERGE:          0
cpu10->cpu10_L1I WRITE        ACCESS:          0 HIT:          0 MISS:          0 MSHR_MERGE:          0
cpu10->cpu10_L1I TRANSLATION  ACCESS:          0 HIT:          0 MISS:          0 MSHR_MERGE:          0
cpu10->cpu10_L1I PREFETCH REQUESTED:          0 ISSUED:          0 USEFUL:          0 USELESS:          0
cpu10->cpu10_L1I AVERAGE MISS LATENCY: 7 cycles
cpu10_L1I COHERENCE INVALIDATIONS:          0
cpu10_L1I COHERENCE WRITE-HIT OTHER-SHARER EVENTS:          0
cpu10_L1D COHERENCE INVALIDATIONS:          0
cpu10_L1D COHERENCE WRITE-HIT OTHER-SHARER EVENTS:          0
cpu10->cpu10_ITLB TOTAL        ACCESS:  313000205 HIT:  312998588 MISS:       1617 MSHR_MERGE:        725
cpu10->cpu10_ITLB LOAD         ACCESS:  313000205 HIT:  312998588 MISS:       1617 MSHR_MERGE:        725
cpu10->cpu10_ITLB RFO          ACCESS:          0 HIT:          0 MISS:          0 MSHR_MERGE:          0
cpu10->cpu10_ITLB PREFETCH     ACCESS:          0 HIT:          0 MISS:          0 MSHR_MERGE:          0
cpu10->cpu10_ITLB WRITE        ACCESS:          0 HIT:          0 MISS:          0 MSHR_MERGE:          0
cpu10->cpu10_ITLB TRANSLATION  ACCESS:          0 HIT:          0 MISS:          0 MSHR_MERGE:          0
cpu10->cpu10_ITLB PREFETCH REQUESTED:          0 ISSUED:          0 USEFUL:          0 USELESS:          0
cpu10->cpu10_ITLB AVERAGE MISS LATENCY: 4 cycles
cpu10_ITLB COHERENCE INVALIDATIONS:          0
cpu10_ITLB COHERENCE WRITE-HIT OTHER-SHARER EVENTS:          0
cpu10_DTLB COHERENCE INVALIDATIONS:          0
cpu10_DTLB COHERENCE WRITE-HIT OTHER-SHARER EVENTS:          0
cpu0->cpu0_STLB TOTAL        ACCESS:    4682457 HIT:    4534712 MISS:     147745 MSHR_MERGE:          0
cpu0->cpu0_STLB LOAD         ACCESS:    4682457 HIT:    4534712 MISS:     147745 MSHR_MERGE:          0
cpu0->cpu0_STLB RFO          ACCESS:          0 HIT:          0 MISS:          0 MSHR_MERGE:          0
cpu0->cpu0_STLB PREFETCH     ACCESS:          0 HIT:          0 MISS:          0 MSHR_MERGE:          0
cpu0->cpu0_STLB WRITE        ACCESS:          0 HIT:          0 MISS:          0 MSHR_MERGE:          0
cpu0->cpu0_STLB TRANSLATION  ACCESS:          0 HIT:          0 MISS:          0 MSHR_MERGE:          0
cpu0->cpu0_STLB PREFETCH REQUESTED:          0 ISSUED:          0 USEFUL:          0 USELESS:          0
cpu0->cpu0_STLB AVERAGE MISS LATENCY: 759.3 cycles
cpu0_STLB COHERENCE INVALIDATIONS:          0
cpu0_STLB COHERENCE WRITE-HIT OTHER-SHARER EVENTS:          0
cpu0->cpu0_L2C TOTAL        ACCESS:   32550729 HIT:   14873285 MISS:   17677444 MSHR_MERGE:          0
cpu0->cpu0_L2C LOAD         ACCESS:   21209842 HIT:    6738662 MISS:   14471180 MSHR_MERGE:          0
cpu0->cpu0_L2C RFO          ACCESS:    3486765 HIT:     514036 MISS:    2972729 MSHR_MERGE:          0
cpu0->cpu0_L2C PREFETCH     ACCESS:          0 HIT:          0 MISS:          0 MSHR_MERGE:          0
cpu0->cpu0_L2C WRITE        ACCESS:    7581626 HIT:    7581018 MISS:        608 MSHR_MERGE:          0
cpu0->cpu0_L2C TRANSLATION  ACCESS:     272496 HIT:      39569 MISS:     232927 MSHR_MERGE:          0
cpu0->cpu0_L2C PREFETCH REQUESTED:          0 ISSUED:          0 USEFUL:          0 USELESS:          0
cpu0->cpu0_L2C AVERAGE MISS LATENCY: 199.3 cycles
cpu0_L2C COHERENCE INVALIDATIONS:          0
cpu0_L2C COHERENCE WRITE-HIT OTHER-SHARER EVENTS:          0
cpu0->cpu0_L1I TOTAL        ACCESS:   31247566 HIT:   31235501 MISS:      12065 MSHR_MERGE:       5837
cpu0->cpu0_L1I LOAD         ACCESS:   31247566 HIT:   31235501 MISS:      12065 MSHR_MERGE:       5837
cpu0->cpu0_L1I RFO          ACCESS:          0 HIT:          0 MISS:          0 MSHR_MERGE:          0
cpu0->cpu0_L1I PREFETCH     ACCESS:          0 HIT:          0 MISS:          0 MSHR_MERGE:          0
cpu0->cpu0_L1I WRITE        ACCESS:          0 HIT:          0 MISS:          0 MSHR_MERGE:          0
cpu0->cpu0_L1I TRANSLATION  ACCESS:          0 HIT:          0 MISS:          0 MSHR_MERGE:          0
cpu0->cpu0_L1I PREFETCH REQUESTED:          0 ISSUED:          0 USEFUL:          0 USELESS:          0
cpu0->cpu0_L1I AVERAGE MISS LATENCY: 319.7 cycles
cpu0_L1I COHERENCE INVALIDATIONS:          0
cpu0_L1I COHERENCE WRITE-HIT OTHER-SHARER EVENTS:          0
cpu0->cpu0_L1D TOTAL        ACCESS:  102863570 HIT:   74483060 MISS:   28380510 MSHR_MERGE:    3415850
cpu0->cpu0_L1D LOAD         ACCESS:   44250534 HIT:   22228010 MISS:   22022524 MSHR_MERGE:     818605
cpu0->cpu0_L1D RFO          ACCESS:          0 HIT:          0 MISS:          0 MSHR_MERGE:          0
cpu0->cpu0_L1D PREFETCH     ACCESS:          0 HIT:          0 MISS:          0 MSHR_MERGE:          0
cpu0->cpu0_L1D WRITE        ACCESS:   58312378 HIT:   52232920 MISS:    6079458 MSHR_MERGE:    2591213
cpu0->cpu0_L1D TRANSLATION  ACCESS:     300658 HIT:      22130 MISS:     278528 MSHR_MERGE:       6032
cpu0->cpu0_L1D PREFETCH REQUESTED:          0 ISSUED:          0 USEFUL:          0 USELESS:          0
cpu0->cpu0_L1D AVERAGE MISS LATENCY: 148.8 cycles
cpu0_L1D COHERENCE INVALIDATIONS:          0
cpu0_L1D COHERENCE WRITE-HIT OTHER-SHARER EVENTS:          0
cpu0->cpu0_ITLB TOTAL        ACCESS:   30050093 HIT:   30049043 MISS:       1050 MSHR_MERGE:        701
cpu0->cpu0_ITLB LOAD         ACCESS:   30050093 HIT:   30049043 MISS:       1050 MSHR_MERGE:        701
cpu0->cpu0_ITLB RFO          ACCESS:          0 HIT:          0 MISS:          0 MSHR_MERGE:          0
cpu0->cpu0_ITLB PREFETCH     ACCESS:          0 HIT:          0 MISS:          0 MSHR_MERGE:          0
cpu0->cpu0_ITLB WRITE        ACCESS:          0 HIT:          0 MISS:          0 MSHR_MERGE:          0
cpu0->cpu0_ITLB TRANSLATION  ACCESS:          0 HIT:          0 MISS:          0 MSHR_MERGE:          0
cpu0->cpu0_ITLB PREFETCH REQUESTED:          0 ISSUED:          0 USEFUL:          0 USELESS:          0
cpu0->cpu0_ITLB AVERAGE MISS LATENCY: 551 cycles
cpu0_ITLB COHERENCE INVALIDATIONS:          0
cpu0_ITLB COHERENCE WRITE-HIT OTHER-SHARER EVENTS:          0
cpu0->cpu0_DTLB TOTAL        ACCESS:   99273209 HIT:   94384827 MISS:    4888382 MSHR_MERGE:     206274
cpu0->cpu0_DTLB LOAD         ACCESS:   99273209 HIT:   94384827 MISS:    4888382 MSHR_MERGE:     206274
cpu0->cpu0_DTLB RFO          ACCESS:          0 HIT:          0 MISS:          0 MSHR_MERGE:          0
cpu0->cpu0_DTLB PREFETCH     ACCESS:          0 HIT:          0 MISS:          0 MSHR_MERGE:          0
cpu0->cpu0_DTLB WRITE        ACCESS:          0 HIT:          0 MISS:          0 MSHR_MERGE:          0
cpu0->cpu0_DTLB TRANSLATION  ACCESS:          0 HIT:          0 MISS:          0 MSHR_MERGE:          0
cpu0->cpu0_DTLB PREFETCH REQUESTED:          0 ISSUED:          0 USEFUL:          0 USELESS:          0
cpu0->cpu0_DTLB AVERAGE MISS LATENCY: 27.95 cycles
cpu0_DTLB COHERENCE INVALIDATIONS:          0
cpu0_DTLB COHERENCE WRITE-HIT OTHER-SHARER EVENTS:          0
cpu0->LLC TOTAL        ACCESS:   24094810 HIT:   11824668 MISS:   12270142 MSHR_MERGE:    4617048
cpu0->LLC LOAD         ACCESS:   14471157 HIT:    7580596 MISS:    6890561 MSHR_MERGE:    3497651
cpu0->LLC RFO          ACCESS:    2972729 HIT:     867355 MISS:    2105374 MSHR_MERGE:    1119397
cpu0->LLC PREFETCH     ACCESS:          0 HIT:          0 MISS:          0 MSHR_MERGE:          0
cpu0->LLC WRITE        ACCESS:    6417997 HIT:    3374371 MISS:    3043626 MSHR_MERGE:          0
cpu0->LLC TRANSLATION  ACCESS:     232927 HIT:       2346 MISS:     230581 MSHR_MERGE:          0
cpu0->LLC PREFETCH REQUESTED:          0 ISSUED:          0 USEFUL:          0 USELESS:          0
cpu0->LLC AVERAGE MISS LATENCY: 646.1 cycles
cpu1->LLC TOTAL        ACCESS:    8120948 HIT:    3173075 MISS:    4947873 MSHR_MERGE:    2324576
cpu1->LLC LOAD         ACCESS:    8071229 HIT:    3173075 MISS:    4898154 MSHR_MERGE:    2324576
cpu1->LLC RFO          ACCESS:          0 HIT:          0 MISS:          0 MSHR_MERGE:          0
cpu1->LLC PREFETCH     ACCESS:          0 HIT:          0 MISS:          0 MSHR_MERGE:          0
cpu1->LLC WRITE        ACCESS:          0 HIT:          0 MISS:          0 MSHR_MERGE:          0
cpu1->LLC TRANSLATION  ACCESS:      49719 HIT:          0 MISS:      49719 MSHR_MERGE:          0
cpu1->LLC PREFETCH REQUESTED:          0 ISSUED:          0 USEFUL:          0 USELESS:          0
cpu1->LLC AVERAGE MISS LATENCY: 2118 cycles
cpu8->LLC TOTAL        ACCESS:   24084711 HIT:   11867717 MISS:   12216994 MSHR_MERGE:    4300308
cpu8->LLC LOAD         ACCESS:   14462530 HIT:    7575647 MISS:    6886883 MSHR_MERGE:    3336258
cpu8->LLC RFO          ACCESS:    2974355 HIT:     870345 MISS:    2104010 MSHR_MERGE:     964050
cpu8->LLC PREFETCH     ACCESS:          0 HIT:          0 MISS:          0 MSHR_MERGE:          0
cpu8->LLC WRITE        ACCESS:    6414937 HIT:    3420244 MISS:    2994693 MSHR_MERGE:          0
cpu8->LLC TRANSLATION  ACCESS:     232889 HIT:       1481 MISS:     231408 MSHR_MERGE:          0
cpu8->LLC PREFETCH REQUESTED:          0 ISSUED:          0 USEFUL:          0 USELESS:          0
cpu8->LLC AVERAGE MISS LATENCY: 677.5 cycles
cpu9->LLC TOTAL        ACCESS:    8123646 HIT:    3178075 MISS:    4945571 MSHR_MERGE:    2516144
cpu9->LLC LOAD         ACCESS:    8073921 HIT:    3178075 MISS:    4895846 MSHR_MERGE:    2516144
cpu9->LLC RFO          ACCESS:          0 HIT:          0 MISS:          0 MSHR_MERGE:          0
cpu9->LLC PREFETCH     ACCESS:          0 HIT:          0 MISS:          0 MSHR_MERGE:          0
cpu9->LLC WRITE        ACCESS:          0 HIT:          0 MISS:          0 MSHR_MERGE:          0
cpu9->LLC TRANSLATION  ACCESS:      49725 HIT:          0 MISS:      49725 MSHR_MERGE:          0
cpu9->LLC PREFETCH REQUESTED:          0 ISSUED:          0 USEFUL:          0 USELESS:          0
cpu9->LLC AVERAGE MISS LATENCY: 1965 cycles
LLC COHERENCE INVALIDATIONS:    8181543
LLC COHERENCE WRITE-HIT OTHER-SHARER EVENTS:    6778475

DRAM Statistics

Channel 0 RQ ROW_BUFFER_HIT:     482999
  ROW_BUFFER_MISS:   14087996
  AVG DBUS CONGESTED CYCLE: 7.327
Channel 0 WQ ROW_BUFFER_HIT:     760406
  ROW_BUFFER_MISS:    5256707
  FULL:      34755
Channel 0 REFRESHES ISSUED:      52522

VMEM ALIASED FILLS (cross-CPU shared-page hits): 385374
