[VMEM] WARNING: physical memory size is smaller than virtual memory size.

*** ChampSim Multicore Out-of-Order Simulator ***
Warmup Instructions: 50000000
Simulation Instructions: 100000000
Number of CPUs: 16
Page size: 4096

Off-chip DRAM Size: 16 GiB Channels: 1 Width: 64-bit Data Rate: 3205 MT/s
Heartbeat CPU 4 instructions: 10000001 cycles: 2508565 heartbeat IPC: 3.986 cumulative IPC: 3.986 (Simulation time: 00 hr 17 min 50 sec)
Heartbeat CPU 13 instructions: 10000003 cycles: 2508660 heartbeat IPC: 3.986 cumulative IPC: 3.986 (Simulation time: 00 hr 17 min 50 sec)
Heartbeat CPU 5 instructions: 10000003 cycles: 2508682 heartbeat IPC: 3.986 cumulative IPC: 3.986 (Simulation time: 00 hr 17 min 50 sec)
Heartbeat CPU 12 instructions: 10000001 cycles: 2508754 heartbeat IPC: 3.986 cumulative IPC: 3.986 (Simulation time: 00 hr 17 min 50 sec)
Heartbeat CPU 11 instructions: 10000003 cycles: 2508783 heartbeat IPC: 3.986 cumulative IPC: 3.986 (Simulation time: 00 hr 17 min 50 sec)
Heartbeat CPU 3 instructions: 10000003 cycles: 2508784 heartbeat IPC: 3.986 cumulative IPC: 3.986 (Simulation time: 00 hr 17 min 50 sec)
Heartbeat CPU 6 instructions: 10000002 cycles: 2509008 heartbeat IPC: 3.986 cumulative IPC: 3.986 (Simulation time: 00 hr 17 min 50 sec)
Heartbeat CPU 14 instructions: 10000002 cycles: 2509009 heartbeat IPC: 3.986 cumulative IPC: 3.986 (Simulation time: 00 hr 17 min 50 sec)
Heartbeat CPU 7 instructions: 10000002 cycles: 2509057 heartbeat IPC: 3.986 cumulative IPC: 3.986 (Simulation time: 00 hr 17 min 50 sec)
Heartbeat CPU 15 instructions: 10000003 cycles: 2509122 heartbeat IPC: 3.985 cumulative IPC: 3.985 (Simulation time: 00 hr 17 min 50 sec)
Heartbeat CPU 2 instructions: 10000003 cycles: 2509620 heartbeat IPC: 3.985 cumulative IPC: 3.985 (Simulation time: 00 hr 17 min 50 sec)
Heartbeat CPU 10 instructions: 10000003 cycles: 2509812 heartbeat IPC: 3.984 cumulative IPC: 3.984 (Simulation time: 00 hr 17 min 50 sec)
Heartbeat CPU 1 instructions: 10000001 cycles: 4562717 heartbeat IPC: 2.192 cumulative IPC: 2.192 (Simulation time: 00 hr 31 min 32 sec)
Heartbeat CPU 9 instructions: 10000001 cycles: 4562840 heartbeat IPC: 2.192 cumulative IPC: 2.192 (Simulation time: 00 hr 31 min 32 sec)
Heartbeat CPU 4 instructions: 20000004 cycles: 5008910 heartbeat IPC: 3.999 cumulative IPC: 3.993 (Simulation time: 00 hr 34 min 28 sec)
Heartbeat CPU 13 instructions: 20000006 cycles: 5008995 heartbeat IPC: 3.999 cumulative IPC: 3.993 (Simulation time: 00 hr 34 min 28 sec)
Heartbeat CPU 11 instructions: 20000006 cycles: 5008999 heartbeat IPC: 4 cumulative IPC: 3.993 (Simulation time: 00 hr 34 min 28 sec)
Heartbeat CPU 3 instructions: 20000006 cycles: 5009000 heartbeat IPC: 4 cumulative IPC: 3.993 (Simulation time: 00 hr 34 min 28 sec)
Heartbeat CPU 5 instructions: 20000005 cycles: 5009022 heartbeat IPC: 3.999 cumulative IPC: 3.993 (Simulation time: 00 hr 34 min 28 sec)
Heartbeat CPU 12 instructions: 20000004 cycles: 5009099 heartbeat IPC: 3.999 cumulative IPC: 3.993 (Simulation time: 00 hr 34 min 28 sec)
Heartbeat CPU 6 instructions: 20000005 cycles: 5009228 heartbeat IPC: 4 cumulative IPC: 3.993 (Simulation time: 00 hr 34 min 28 sec)
Heartbeat CPU 14 instructions: 20000005 cycles: 5009230 heartbeat IPC: 4 cumulative IPC: 3.993 (Simulation time: 00 hr 34 min 28 sec)
Heartbeat CPU 7 instructions: 20000004 cycles: 5009278 heartbeat IPC: 4 cumulative IPC: 3.993 (Simulation time: 00 hr 34 min 28 sec)
Heartbeat CPU 15 instructions: 20000003 cycles: 5009340 heartbeat IPC: 4 cumulative IPC: 3.993 (Simulation time: 00 hr 34 min 28 sec)
Heartbeat CPU 2 instructions: 20000003 cycles: 5010460 heartbeat IPC: 3.999 cumulative IPC: 3.992 (Simulation time: 00 hr 34 min 29 sec)
Heartbeat CPU 10 instructions: 20000003 cycles: 5010646 heartbeat IPC: 3.999 cumulative IPC: 3.992 (Simulation time: 00 hr 34 min 29 sec)
Heartbeat CPU 4 instructions: 30000004 cycles: 7508910 heartbeat IPC: 4 cumulative IPC: 3.995 (Simulation time: 00 hr 52 min 01 sec)
Heartbeat CPU 13 instructions: 30000006 cycles: 7508995 heartbeat IPC: 4 cumulative IPC: 3.995 (Simulation time: 00 hr 52 min 01 sec)
Heartbeat CPU 11 instructions: 30000006 cycles: 7508999 heartbeat IPC: 4 cumulative IPC: 3.995 (Simulation time: 00 hr 52 min 01 sec)
Heartbeat CPU 3 instructions: 30000006 cycles: 7509000 heartbeat IPC: 4 cumulative IPC: 3.995 (Simulation time: 00 hr 52 min 01 sec)
Heartbeat CPU 5 instructions: 30000005 cycles: 7509022 heartbeat IPC: 4 cumulative IPC: 3.995 (Simulation time: 00 hr 52 min 01 sec)
Heartbeat CPU 12 instructions: 30000004 cycles: 7509099 heartbeat IPC: 4 cumulative IPC: 3.995 (Simulation time: 00 hr 52 min 01 sec)
Heartbeat CPU 6 instructions: 30000005 cycles: 7509228 heartbeat IPC: 4 cumulative IPC: 3.995 (Simulation time: 00 hr 52 min 01 sec)
Heartbeat CPU 14 instructions: 30000005 cycles: 7509230 heartbeat IPC: 4 cumulative IPC: 3.995 (Simulation time: 00 hr 52 min 01 sec)
Heartbeat CPU 7 instructions: 30000004 cycles: 7509278 heartbeat IPC: 4 cumulative IPC: 3.995 (Simulation time: 00 hr 52 min 01 sec)
Heartbeat CPU 15 instructions: 30000003 cycles: 7509340 heartbeat IPC: 4 cumulative IPC: 3.995 (Simulation time: 00 hr 52 min 01 sec)
Heartbeat CPU 2 instructions: 30000003 cycles: 7510460 heartbeat IPC: 4 cumulative IPC: 3.994 (Simulation time: 00 hr 52 min 01 sec)
Heartbeat CPU 10 instructions: 30000003 cycles: 7510646 heartbeat IPC: 4 cumulative IPC: 3.994 (Simulation time: 00 hr 52 min 01 sec)
Heartbeat CPU 9 instructions: 20000004 cycles: 9006019 heartbeat IPC: 2.251 cumulative IPC: 2.221 (Simulation time: 01 hr 02 min 25 sec)
Heartbeat CPU 1 instructions: 20000001 cycles: 9006026 heartbeat IPC: 2.251 cumulative IPC: 2.221 (Simulation time: 01 hr 02 min 25 sec)
Heartbeat CPU 4 instructions: 40000004 cycles: 10008910 heartbeat IPC: 4 cumulative IPC: 3.996 (Simulation time: 01 hr 09 min 58 sec)
Heartbeat CPU 13 instructions: 40000006 cycles: 10008995 heartbeat IPC: 4 cumulative IPC: 3.996 (Simulation time: 01 hr 09 min 58 sec)
Heartbeat CPU 11 instructions: 40000006 cycles: 10008999 heartbeat IPC: 4 cumulative IPC: 3.996 (Simulation time: 01 hr 09 min 58 sec)
Heartbeat CPU 3 instructions: 40000006 cycles: 10009000 heartbeat IPC: 4 cumulative IPC: 3.996 (Simulation time: 01 hr 09 min 58 sec)
Heartbeat CPU 5 instructions: 40000005 cycles: 10009022 heartbeat IPC: 4 cumulative IPC: 3.996 (Simulation time: 01 hr 09 min 58 sec)
Heartbeat CPU 12 instructions: 40000004 cycles: 10009099 heartbeat IPC: 4 cumulative IPC: 3.996 (Simulation time: 01 hr 09 min 59 sec)
Heartbeat CPU 6 instructions: 40000005 cycles: 10009228 heartbeat IPC: 4 cumulative IPC: 3.996 (Simulation time: 01 hr 09 min 59 sec)
Heartbeat CPU 14 instructions: 40000005 cycles: 10009230 heartbeat IPC: 4 cumulative IPC: 3.996 (Simulation time: 01 hr 09 min 59 sec)
Heartbeat CPU 7 instructions: 40000004 cycles: 10009278 heartbeat IPC: 4 cumulative IPC: 3.996 (Simulation time: 01 hr 09 min 59 sec)
Heartbeat CPU 15 instructions: 40000003 cycles: 10009340 heartbeat IPC: 4 cumulative IPC: 3.996 (Simulation time: 01 hr 09 min 59 sec)
Heartbeat CPU 2 instructions: 40000003 cycles: 10010460 heartbeat IPC: 4 cumulative IPC: 3.996 (Simulation time: 01 hr 09 min 59 sec)
Heartbeat CPU 10 instructions: 40000003 cycles: 10010646 heartbeat IPC: 4 cumulative IPC: 3.996 (Simulation time: 01 hr 09 min 59 sec)
*** Reached end of trace: (2, "/home/harshraj/COALESCE-Hashed-Perceptron-Cache-Replacement-Policy/simulator/traces/ocean_8t/ocean2.champsimtrace")
*** Reached end of trace: (10, "/home/harshraj/COALESCE-Hashed-Perceptron-Cache-Replacement-Policy/simulator/traces/ocean_8t/ocean2.champsimtrace")
*** Reached end of trace: (13, "/home/harshraj/COALESCE-Hashed-Perceptron-Cache-Replacement-Policy/simulator/traces/ocean_8t/ocean5.champsimtrace")
*** Reached end of trace: (5, "/home/harshraj/COALESCE-Hashed-Perceptron-Cache-Replacement-Policy/simulator/traces/ocean_8t/ocean5.champsimtrace")
*** Reached end of trace: (4, "/home/harshraj/COALESCE-Hashed-Perceptron-Cache-Replacement-Policy/simulator/traces/ocean_8t/ocean4.champsimtrace")
*** Reached end of trace: (12, "/home/harshraj/COALESCE-Hashed-Perceptron-Cache-Replacement-Policy/simulator/traces/ocean_8t/ocean4.champsimtrace")
*** Reached end of trace: (6, "/home/harshraj/COALESCE-Hashed-Perceptron-Cache-Replacement-Policy/simulator/traces/ocean_8t/ocean6.champsimtrace")
*** Reached end of trace: (14, "/home/harshraj/COALESCE-Hashed-Perceptron-Cache-Replacement-Policy/simulator/traces/ocean_8t/ocean6.champsimtrace")
*** Reached end of trace: (11, "/home/harshraj/COALESCE-Hashed-Perceptron-Cache-Replacement-Policy/simulator/traces/ocean_8t/ocean3.champsimtrace")
*** Reached end of trace: (3, "/home/harshraj/COALESCE-Hashed-Perceptron-Cache-Replacement-Policy/simulator/traces/ocean_8t/ocean3.champsimtrace")
*** Reached end of trace: (7, "/home/harshraj/COALESCE-Hashed-Perceptron-Cache-Replacement-Policy/simulator/traces/ocean_8t/ocean7.champsimtrace")
*** Reached end of trace: (15, "/home/harshraj/COALESCE-Hashed-Perceptron-Cache-Replacement-Policy/simulator/traces/ocean_8t/ocean7.champsimtrace")
Warmup finished CPU 4 instructions: 50000002 cycles: 12510913 cumulative IPC: 3.997 (Simulation time: 01 hr 27 min 17 sec)
Heartbeat CPU 4 instructions: 50000006 cycles: 12510914 heartbeat IPC: 3.997 cumulative IPC: 3.997 (Simulation time: 01 hr 27 min 17 sec)
Warmup finished CPU 13 instructions: 50000001 cycles: 12510996 cumulative IPC: 3.996 (Simulation time: 01 hr 27 min 17 sec)
Heartbeat CPU 13 instructions: 50000009 cycles: 12510998 heartbeat IPC: 3.997 cumulative IPC: 3.996 (Simulation time: 01 hr 27 min 17 sec)
Warmup finished CPU 11 instructions: 50000000 cycles: 12510998 cumulative IPC: 3.996 (Simulation time: 01 hr 27 min 17 sec)
Warmup finished CPU 3 instructions: 50000000 cycles: 12510999 cumulative IPC: 3.996 (Simulation time: 01 hr 27 min 17 sec)
Heartbeat CPU 11 instructions: 50000008 cycles: 12511000 heartbeat IPC: 3.997 cumulative IPC: 3.996 (Simulation time: 01 hr 27 min 17 sec)
Heartbeat CPU 3 instructions: 50000008 cycles: 12511001 heartbeat IPC: 3.997 cumulative IPC: 3.996 (Simulation time: 01 hr 27 min 17 sec)
Warmup finished CPU 5 instructions: 50000001 cycles: 12511028 cumulative IPC: 3.996 (Simulation time: 01 hr 27 min 17 sec)
Heartbeat CPU 5 instructions: 50000005 cycles: 12511029 heartbeat IPC: 3.997 cumulative IPC: 3.996 (Simulation time: 01 hr 27 min 17 sec)
Warmup finished CPU 12 instructions: 50000002 cycles: 12511102 cumulative IPC: 3.996 (Simulation time: 01 hr 27 min 17 sec)
Heartbeat CPU 12 instructions: 50000006 cycles: 12511103 heartbeat IPC: 3.997 cumulative IPC: 3.996 (Simulation time: 01 hr 27 min 17 sec)
Warmup finished CPU 14 instructions: 50000002 cycles: 12511231 cumulative IPC: 3.996 (Simulation time: 01 hr 27 min 17 sec)
Heartbeat CPU 14 instructions: 50000006 cycles: 12511232 heartbeat IPC: 3.997 cumulative IPC: 3.996 (Simulation time: 01 hr 27 min 17 sec)
Warmup finished CPU 6 instructions: 50000002 cycles: 12511235 cumulative IPC: 3.996 (Simulation time: 01 hr 27 min 17 sec)
Heartbeat CPU 6 instructions: 50000006 cycles: 12511236 heartbeat IPC: 3.997 cumulative IPC: 3.996 (Simulation time: 01 hr 27 min 17 sec)
Warmup finished CPU 7 instructions: 50000003 cycles: 12511258 cumulative IPC: 3.996 (Simulation time: 01 hr 27 min 17 sec)
Heartbeat CPU 7 instructions: 50000007 cycles: 12511259 heartbeat IPC: 3.997 cumulative IPC: 3.996 (Simulation time: 01 hr 27 min 17 sec)
Heartbeat CPU 15 instructions: 50000003 cycles: 12511340 heartbeat IPC: 3.997 cumulative IPC: 3.996 (Simulation time: 01 hr 27 min 17 sec)
Warmup finished CPU 15 instructions: 50000003 cycles: 12511340 cumulative IPC: 3.996 (Simulation time: 01 hr 27 min 17 sec)
Warmup finished CPU 2 instructions: 50000002 cycles: 12512865 cumulative IPC: 3.996 (Simulation time: 01 hr 27 min 17 sec)
Heartbeat CPU 2 instructions: 50000006 cycles: 12512866 heartbeat IPC: 3.996 cumulative IPC: 3.996 (Simulation time: 01 hr 27 min 17 sec)
Warmup finished CPU 10 instructions: 50000002 cycles: 12513048 cumulative IPC: 3.996 (Simulation time: 01 hr 27 min 17 sec)
Heartbeat CPU 10 instructions: 50000006 cycles: 12513049 heartbeat IPC: 3.996 cumulative IPC: 3.996 (Simulation time: 01 hr 27 min 17 sec)
Heartbeat CPU 1 instructions: 30000002 cycles: 14309952 heartbeat IPC: 1.885 cumulative IPC: 2.096 (Simulation time: 01 hr 39 min 43 sec)
Heartbeat CPU 9 instructions: 30000006 cycles: 14309953 heartbeat IPC: 1.885 cumulative IPC: 2.096 (Simulation time: 01 hr 39 min 43 sec)
Heartbeat CPU 4 instructions: 60000006 cycles: 15010914 heartbeat IPC: 4 cumulative IPC: 3.997 (Simulation time: 01 hr 44 min 20 sec)
Heartbeat CPU 13 instructions: 60000009 cycles: 15010998 heartbeat IPC: 4 cumulative IPC: 3.997 (Simulation time: 01 hr 44 min 20 sec)
Heartbeat CPU 11 instructions: 60000008 cycles: 15011000 heartbeat IPC: 4 cumulative IPC: 3.997 (Simulation time: 01 hr 44 min 20 sec)
Heartbeat CPU 3 instructions: 60000008 cycles: 15011001 heartbeat IPC: 4 cumulative IPC: 3.997 (Simulation time: 01 hr 44 min 20 sec)
Heartbeat CPU 5 instructions: 60000005 cycles: 15011029 heartbeat IPC: 4 cumulative IPC: 3.997 (Simulation time: 01 hr 44 min 20 sec)
Heartbeat CPU 12 instructions: 60000006 cycles: 15011103 heartbeat IPC: 4 cumulative IPC: 3.997 (Simulation time: 01 hr 44 min 20 sec)
Heartbeat CPU 14 instructions: 60000006 cycles: 15011232 heartbeat IPC: 4 cumulative IPC: 3.997 (Simulation time: 01 hr 44 min 20 sec)
Heartbeat CPU 6 instructions: 60000006 cycles: 15011236 heartbeat IPC: 4 cumulative IPC: 3.997 (Simulation time: 01 hr 44 min 20 sec)
Heartbeat CPU 7 instructions: 60000007 cycles: 15011259 heartbeat IPC: 4 cumulative IPC: 3.997 (Simulation time: 01 hr 44 min 20 sec)
Heartbeat CPU 15 instructions: 60000003 cycles: 15011340 heartbeat IPC: 4 cumulative IPC: 3.997 (Simulation time: 01 hr 44 min 20 sec)
Heartbeat CPU 2 instructions: 60000006 cycles: 15012866 heartbeat IPC: 4 cumulative IPC: 3.997 (Simulation time: 01 hr 44 min 21 sec)
Heartbeat CPU 10 instructions: 60000006 cycles: 15013049 heartbeat IPC: 4 cumulative IPC: 3.997 (Simulation time: 01 hr 44 min 21 sec)
Heartbeat CPU 4 instructions: 70000006 cycles: 17510914 heartbeat IPC: 4 cumulative IPC: 3.998 (Simulation time: 02 hr 01 min 43 sec)
Heartbeat CPU 13 instructions: 70000009 cycles: 17510998 heartbeat IPC: 4 cumulative IPC: 3.997 (Simulation time: 02 hr 01 min 43 sec)
Heartbeat CPU 11 instructions: 70000008 cycles: 17511000 heartbeat IPC: 4 cumulative IPC: 3.997 (Simulation time: 02 hr 01 min 43 sec)
Heartbeat CPU 3 instructions: 70000008 cycles: 17511001 heartbeat IPC: 4 cumulative IPC: 3.997 (Simulation time: 02 hr 01 min 43 sec)
Heartbeat CPU 5 instructions: 70000005 cycles: 17511029 heartbeat IPC: 4 cumulative IPC: 3.997 (Simulation time: 02 hr 01 min 43 sec)
Heartbeat CPU 12 instructions: 70000006 cycles: 17511103 heartbeat IPC: 4 cumulative IPC: 3.997 (Simulation time: 02 hr 01 min 43 sec)
Heartbeat CPU 14 instructions: 70000006 cycles: 17511232 heartbeat IPC: 4 cumulative IPC: 3.997 (Simulation time: 02 hr 01 min 43 sec)
Heartbeat CPU 6 instructions: 70000006 cycles: 17511236 heartbeat IPC: 4 cumulative IPC: 3.997 (Simulation time: 02 hr 01 min 43 sec)
Heartbeat CPU 7 instructions: 70000007 cycles: 17511259 heartbeat IPC: 4 cumulative IPC: 3.997 (Simulation time: 02 hr 01 min 43 sec)
Heartbeat CPU 15 instructions: 70000003 cycles: 17511340 heartbeat IPC: 4 cumulative IPC: 3.997 (Simulation time: 02 hr 01 min 43 sec)
Heartbeat CPU 2 instructions: 70000006 cycles: 17512866 heartbeat IPC: 4 cumulative IPC: 3.997 (Simulation time: 02 hr 01 min 44 sec)
Heartbeat CPU 10 instructions: 70000006 cycles: 17513049 heartbeat IPC: 4 cumulative IPC: 3.997 (Simulation time: 02 hr 01 min 44 sec)
Heartbeat CPU 1 instructions: 40000004 cycles: 18542571 heartbeat IPC: 2.363 cumulative IPC: 2.157 (Simulation time: 02 hr 09 min 01 sec)
Heartbeat CPU 9 instructions: 40000008 cycles: 18542572 heartbeat IPC: 2.363 cumulative IPC: 2.157 (Simulation time: 02 hr 09 min 01 sec)
Heartbeat CPU 4 instructions: 80000006 cycles: 20010914 heartbeat IPC: 4 cumulative IPC: 3.998 (Simulation time: 02 hr 18 min 14 sec)
Heartbeat CPU 13 instructions: 80000009 cycles: 20010998 heartbeat IPC: 4 cumulative IPC: 3.998 (Simulation time: 02 hr 18 min 14 sec)
Heartbeat CPU 11 instructions: 80000008 cycles: 20011000 heartbeat IPC: 4 cumulative IPC: 3.998 (Simulation time: 02 hr 18 min 14 sec)
Heartbeat CPU 3 instructions: 80000008 cycles: 20011001 heartbeat IPC: 4 cumulative IPC: 3.998 (Simulation time: 02 hr 18 min 14 sec)
Heartbeat CPU 5 instructions: 80000005 cycles: 20011029 heartbeat IPC: 4 cumulative IPC: 3.998 (Simulation time: 02 hr 18 min 14 sec)
Heartbeat CPU 12 instructions: 80000006 cycles: 20011103 heartbeat IPC: 4 cumulative IPC: 3.998 (Simulation time: 02 hr 18 min 14 sec)
Heartbeat CPU 14 instructions: 80000006 cycles: 20011232 heartbeat IPC: 4 cumulative IPC: 3.998 (Simulation time: 02 hr 18 min 14 sec)
Heartbeat CPU 6 instructions: 80000006 cycles: 20011236 heartbeat IPC: 4 cumulative IPC: 3.998 (Simulation time: 02 hr 18 min 14 sec)
Heartbeat CPU 7 instructions: 80000007 cycles: 20011259 heartbeat IPC: 4 cumulative IPC: 3.998 (Simulation time: 02 hr 18 min 14 sec)
Heartbeat CPU 15 instructions: 80000003 cycles: 20011340 heartbeat IPC: 4 cumulative IPC: 3.998 (Simulation time: 02 hr 18 min 14 sec)
Heartbeat CPU 2 instructions: 80000006 cycles: 20012866 heartbeat IPC: 4 cumulative IPC: 3.997 (Simulation time: 02 hr 18 min 14 sec)
Heartbeat CPU 10 instructions: 80000006 cycles: 20013049 heartbeat IPC: 4 cumulative IPC: 3.997 (Simulation time: 02 hr 18 min 14 sec)
*** Reached end of trace: (9, "/home/harshraj/COALESCE-Hashed-Perceptron-Cache-Replacement-Policy/simulator/traces/ocean_8t/ocean1.champsimtrace")
*** Reached end of trace: (1, "/home/harshraj/COALESCE-Hashed-Perceptron-Cache-Replacement-Policy/simulator/traces/ocean_8t/ocean1.champsimtrace")
Heartbeat CPU 0 instructions: 10000000 cycles: 20614892 heartbeat IPC: 0.4851 cumulative IPC: 0.4851 (Simulation time: 02 hr 22 min 23 sec)
Heartbeat CPU 8 instructions: 10000000 cycles: 20615095 heartbeat IPC: 0.4851 cumulative IPC: 0.4851 (Simulation time: 02 hr 22 min 23 sec)
Warmup finished CPU 9 instructions: 50000002 cycles: 22420137 cumulative IPC: 2.23 (Simulation time: 02 hr 34 min 56 sec)
Warmup finished CPU 1 instructions: 50000002 cycles: 22420137 cumulative IPC: 2.23 (Simulation time: 02 hr 34 min 56 sec)
Heartbeat CPU 1 instructions: 50000006 cycles: 22420138 heartbeat IPC: 2.579 cumulative IPC: 2.23 (Simulation time: 02 hr 34 min 56 sec)
Heartbeat CPU 9 instructions: 50000010 cycles: 22420139 heartbeat IPC: 2.579 cumulative IPC: 2.23 (Simulation time: 02 hr 34 min 56 sec)
Heartbeat CPU 4 instructions: 90000006 cycles: 22510914 heartbeat IPC: 4 cumulative IPC: 3.998 (Simulation time: 02 hr 35 min 38 sec)
Heartbeat CPU 13 instructions: 90000009 cycles: 22510998 heartbeat IPC: 4 cumulative IPC: 3.998 (Simulation time: 02 hr 35 min 38 sec)
Heartbeat CPU 11 instructions: 90000008 cycles: 22511000 heartbeat IPC: 4 cumulative IPC: 3.998 (Simulation time: 02 hr 35 min 38 sec)
Heartbeat CPU 3 instructions: 90000008 cycles: 22511001 heartbeat IPC: 4 cumulative IPC: 3.998 (Simulation time: 02 hr 35 min 38 sec)
Heartbeat CPU 5 instructions: 90000005 cycles: 22511029 heartbeat IPC: 4 cumulative IPC: 3.998 (Simulation time: 02 hr 35 min 38 sec)
Heartbeat CPU 12 instructions: 90000006 cycles: 22511103 heartbeat IPC: 4 cumulative IPC: 3.998 (Simulation time: 02 hr 35 min 38 sec)
Heartbeat CPU 14 instructions: 90000006 cycles: 22511232 heartbeat IPC: 4 cumulative IPC: 3.998 (Simulation time: 02 hr 35 min 38 sec)
Heartbeat CPU 6 instructions: 90000006 cycles: 22511236 heartbeat IPC: 4 cumulative IPC: 3.998 (Simulation time: 02 hr 35 min 38 sec)
Heartbeat CPU 7 instructions: 90000007 cycles: 22511259 heartbeat IPC: 4 cumulative IPC: 3.998 (Simulation time: 02 hr 35 min 38 sec)
Heartbeat CPU 15 instructions: 90000003 cycles: 22511340 heartbeat IPC: 4 cumulative IPC: 3.998 (Simulation time: 02 hr 35 min 38 sec)
Heartbeat CPU 2 instructions: 90000006 cycles: 22512866 heartbeat IPC: 4 cumulative IPC: 3.998 (Simulation time: 02 hr 35 min 38 sec)
Heartbeat CPU 10 instructions: 90000006 cycles: 22513049 heartbeat IPC: 4 cumulative IPC: 3.998 (Simulation time: 02 hr 35 min 38 sec)
*** Reached end of trace: (2, "/home/harshraj/COALESCE-Hashed-Perceptron-Cache-Replacement-Policy/simulator/traces/ocean_8t/ocean2.champsimtrace")
*** Reached end of trace: (10, "/home/harshraj/COALESCE-Hashed-Perceptron-Cache-Replacement-Policy/simulator/traces/ocean_8t/ocean2.champsimtrace")
*** Reached end of trace: (13, "/home/harshraj/COALESCE-Hashed-Perceptron-Cache-Replacement-Policy/simulator/traces/ocean_8t/ocean5.champsimtrace")
*** Reached end of trace: (5, "/home/harshraj/COALESCE-Hashed-Perceptron-Cache-Replacement-Policy/simulator/traces/ocean_8t/ocean5.champsimtrace")
*** Reached end of trace: (4, "/home/harshraj/COALESCE-Hashed-Perceptron-Cache-Replacement-Policy/simulator/traces/ocean_8t/ocean4.champsimtrace")
*** Reached end of trace: (12, "/home/harshraj/COALESCE-Hashed-Perceptron-Cache-Replacement-Policy/simulator/traces/ocean_8t/ocean4.champsimtrace")
*** Reached end of trace: (14, "/home/harshraj/COALESCE-Hashed-Perceptron-Cache-Replacement-Policy/simulator/traces/ocean_8t/ocean6.champsimtrace")
*** Reached end of trace: (6, "/home/harshraj/COALESCE-Hashed-Perceptron-Cache-Replacement-Policy/simulator/traces/ocean_8t/ocean6.champsimtrace")
*** Reached end of trace: (11, "/home/harshraj/COALESCE-Hashed-Perceptron-Cache-Replacement-Policy/simulator/traces/ocean_8t/ocean3.champsimtrace")
*** Reached end of trace: (3, "/home/harshraj/COALESCE-Hashed-Perceptron-Cache-Replacement-Policy/simulator/traces/ocean_8t/ocean3.champsimtrace")
*** Reached end of trace: (7, "/home/harshraj/COALESCE-Hashed-Perceptron-Cache-Replacement-Policy/simulator/traces/ocean_8t/ocean7.champsimtrace")
*** Reached end of trace: (15, "/home/harshraj/COALESCE-Hashed-Perceptron-Cache-Replacement-Policy/simulator/traces/ocean_8t/ocean7.champsimtrace")
Heartbeat CPU 4 instructions: 100000006 cycles: 25010914 heartbeat IPC: 4 cumulative IPC: 3.998 (Simulation time: 02 hr 52 min 37 sec)
Heartbeat CPU 13 instructions: 100000009 cycles: 25010998 heartbeat IPC: 4 cumulative IPC: 3.998 (Simulation time: 02 hr 52 min 37 sec)
Heartbeat CPU 11 instructions: 100000008 cycles: 25011000 heartbeat IPC: 4 cumulative IPC: 3.998 (Simulation time: 02 hr 52 min 37 sec)
Heartbeat CPU 3 instructions: 100000008 cycles: 25011001 heartbeat IPC: 4 cumulative IPC: 3.998 (Simulation time: 02 hr 52 min 37 sec)
Heartbeat CPU 5 instructions: 100000005 cycles: 25011029 heartbeat IPC: 4 cumulative IPC: 3.998 (Simulation time: 02 hr 52 min 37 sec)
Heartbeat CPU 12 instructions: 100000006 cycles: 25011103 heartbeat IPC: 4 cumulative IPC: 3.998 (Simulation time: 02 hr 52 min 37 sec)
Heartbeat CPU 14 instructions: 100000006 cycles: 25011232 heartbeat IPC: 4 cumulative IPC: 3.998 (Simulation time: 02 hr 52 min 37 sec)
Heartbeat CPU 6 instructions: 100000006 cycles: 25011236 heartbeat IPC: 4 cumulative IPC: 3.998 (Simulation time: 02 hr 52 min 37 sec)
Heartbeat CPU 7 instructions: 100000007 cycles: 25011259 heartbeat IPC: 4 cumulative IPC: 3.998 (Simulation time: 02 hr 52 min 37 sec)
Heartbeat CPU 15 instructions: 100000003 cycles: 25011340 heartbeat IPC: 4 cumulative IPC: 3.998 (Simulation time: 02 hr 52 min 37 sec)
Heartbeat CPU 2 instructions: 100000006 cycles: 25012866 heartbeat IPC: 4 cumulative IPC: 3.998 (Simulation time: 02 hr 52 min 38 sec)
Heartbeat CPU 10 instructions: 100000006 cycles: 25013049 heartbeat IPC: 4 cumulative IPC: 3.998 (Simulation time: 02 hr 52 min 38 sec)
Heartbeat CPU 1 instructions: 60000009 cycles: 26522222 heartbeat IPC: 2.438 cumulative IPC: 2.262 (Simulation time: 03 hr 03 min 27 sec)
Heartbeat CPU 9 instructions: 60000013 cycles: 26522260 heartbeat IPC: 2.438 cumulative IPC: 2.262 (Simulation time: 03 hr 03 min 27 sec)
Heartbeat CPU 4 instructions: 110000006 cycles: 27510914 heartbeat IPC: 4 cumulative IPC: 3.998 (Simulation time: 03 hr 10 min 01 sec)
Heartbeat CPU 13 instructions: 110000009 cycles: 27510998 heartbeat IPC: 4 cumulative IPC: 3.998 (Simulation time: 03 hr 10 min 01 sec)
Heartbeat CPU 11 instructions: 110000008 cycles: 27511000 heartbeat IPC: 4 cumulative IPC: 3.998 (Simulation time: 03 hr 10 min 01 sec)
Heartbeat CPU 3 instructions: 110000008 cycles: 27511001 heartbeat IPC: 4 cumulative IPC: 3.998 (Simulation time: 03 hr 10 min 01 sec)
Heartbeat CPU 5 instructions: 110000005 cycles: 27511029 heartbeat IPC: 4 cumulative IPC: 3.998 (Simulation time: 03 hr 10 min 01 sec)
Heartbeat CPU 12 instructions: 110000006 cycles: 27511103 heartbeat IPC: 4 cumulative IPC: 3.998 (Simulation time: 03 hr 10 min 01 sec)
Heartbeat CPU 14 instructions: 110000006 cycles: 27511232 heartbeat IPC: 4 cumulative IPC: 3.998 (Simulation time: 03 hr 10 min 01 sec)
Heartbeat CPU 6 instructions: 110000006 cycles: 27511236 heartbeat IPC: 4 cumulative IPC: 3.998 (Simulation time: 03 hr 10 min 01 sec)
Heartbeat CPU 7 instructions: 110000007 cycles: 27511259 heartbeat IPC: 4 cumulative IPC: 3.998 (Simulation time: 03 hr 10 min 01 sec)
Heartbeat CPU 15 instructions: 110000003 cycles: 27511340 heartbeat IPC: 4 cumulative IPC: 3.998 (Simulation time: 03 hr 10 min 01 sec)
Heartbeat CPU 2 instructions: 110000006 cycles: 27512866 heartbeat IPC: 4 cumulative IPC: 3.998 (Simulation time: 03 hr 10 min 02 sec)
Heartbeat CPU 10 instructions: 110000006 cycles: 27513049 heartbeat IPC: 4 cumulative IPC: 3.998 (Simulation time: 03 hr 10 min 02 sec)
Heartbeat CPU 4 instructions: 120000006 cycles: 30010914 heartbeat IPC: 4 cumulative IPC: 3.999 (Simulation time: 03 hr 27 min 08 sec)
Heartbeat CPU 13 instructions: 120000009 cycles: 30010998 heartbeat IPC: 4 cumulative IPC: 3.999 (Simulation time: 03 hr 27 min 08 sec)
Heartbeat CPU 11 instructions: 120000008 cycles: 30011000 heartbeat IPC: 4 cumulative IPC: 3.999 (Simulation time: 03 hr 27 min 08 sec)
Heartbeat CPU 3 instructions: 120000008 cycles: 30011001 heartbeat IPC: 4 cumulative IPC: 3.999 (Simulation time: 03 hr 27 min 08 sec)
Heartbeat CPU 5 instructions: 120000005 cycles: 30011029 heartbeat IPC: 4 cumulative IPC: 3.999 (Simulation time: 03 hr 27 min 08 sec)
Heartbeat CPU 12 instructions: 120000006 cycles: 30011103 heartbeat IPC: 4 cumulative IPC: 3.999 (Simulation time: 03 hr 27 min 08 sec)
Heartbeat CPU 14 instructions: 120000006 cycles: 30011232 heartbeat IPC: 4 cumulative IPC: 3.999 (Simulation time: 03 hr 27 min 08 sec)
Heartbeat CPU 6 instructions: 120000006 cycles: 30011236 heartbeat IPC: 4 cumulative IPC: 3.999 (Simulation time: 03 hr 27 min 08 sec)
Heartbeat CPU 7 instructions: 120000007 cycles: 30011259 heartbeat IPC: 4 cumulative IPC: 3.998 (Simulation time: 03 hr 27 min 08 sec)
Heartbeat CPU 15 instructions: 120000003 cycles: 30011340 heartbeat IPC: 4 cumulative IPC: 3.998 (Simulation time: 03 hr 27 min 08 sec)
Heartbeat CPU 2 instructions: 120000006 cycles: 30012866 heartbeat IPC: 4 cumulative IPC: 3.998 (Simulation time: 03 hr 27 min 09 sec)
Heartbeat CPU 10 instructions: 120000006 cycles: 30013049 heartbeat IPC: 4 cumulative IPC: 3.998 (Simulation time: 03 hr 27 min 09 sec)
Heartbeat CPU 1 instructions: 70000009 cycles: 30687504 heartbeat IPC: 2.401 cumulative IPC: 2.281 (Simulation time: 03 hr 31 min 54 sec)
Heartbeat CPU 9 instructions: 70000013 cycles: 30687505 heartbeat IPC: 2.401 cumulative IPC: 2.281 (Simulation time: 03 hr 31 min 54 sec)
Heartbeat CPU 4 instructions: 130000006 cycles: 32510914 heartbeat IPC: 4 cumulative IPC: 3.999 (Simulation time: 03 hr 44 min 18 sec)
Heartbeat CPU 13 instructions: 130000009 cycles: 32510998 heartbeat IPC: 4 cumulative IPC: 3.999 (Simulation time: 03 hr 44 min 18 sec)
Heartbeat CPU 11 instructions: 130000008 cycles: 32511000 heartbeat IPC: 4 cumulative IPC: 3.999 (Simulation time: 03 hr 44 min 18 sec)
Heartbeat CPU 3 instructions: 130000008 cycles: 32511001 heartbeat IPC: 4 cumulative IPC: 3.999 (Simulation time: 03 hr 44 min 18 sec)
Heartbeat CPU 5 instructions: 130000005 cycles: 32511029 heartbeat IPC: 4 cumulative IPC: 3.999 (Simulation time: 03 hr 44 min 18 sec)
Heartbeat CPU 12 instructions: 130000006 cycles: 32511103 heartbeat IPC: 4 cumulative IPC: 3.999 (Simulation time: 03 hr 44 min 18 sec)
Heartbeat CPU 14 instructions: 130000006 cycles: 32511232 heartbeat IPC: 4 cumulative IPC: 3.999 (Simulation time: 03 hr 44 min 18 sec)
Heartbeat CPU 6 instructions: 130000006 cycles: 32511236 heartbeat IPC: 4 cumulative IPC: 3.999 (Simulation time: 03 hr 44 min 18 sec)
Heartbeat CPU 7 instructions: 130000007 cycles: 32511259 heartbeat IPC: 4 cumulative IPC: 3.999 (Simulation time: 03 hr 44 min 18 sec)
Heartbeat CPU 15 instructions: 130000003 cycles: 32511340 heartbeat IPC: 4 cumulative IPC: 3.999 (Simulation time: 03 hr 44 min 18 sec)
Heartbeat CPU 2 instructions: 130000006 cycles: 32512866 heartbeat IPC: 4 cumulative IPC: 3.998 (Simulation time: 03 hr 44 min 19 sec)
Heartbeat CPU 10 instructions: 130000006 cycles: 32513049 heartbeat IPC: 4 cumulative IPC: 3.998 (Simulation time: 03 hr 44 min 19 sec)
*** Reached end of trace: (2, "/home/harshraj/COALESCE-Hashed-Perceptron-Cache-Replacement-Policy/simulator/traces/ocean_8t/ocean2.champsimtrace")
*** Reached end of trace: (10, "/home/harshraj/COALESCE-Hashed-Perceptron-Cache-Replacement-Policy/simulator/traces/ocean_8t/ocean2.champsimtrace")
*** Reached end of trace: (13, "/home/harshraj/COALESCE-Hashed-Perceptron-Cache-Replacement-Policy/simulator/traces/ocean_8t/ocean5.champsimtrace")
*** Reached end of trace: (5, "/home/harshraj/COALESCE-Hashed-Perceptron-Cache-Replacement-Policy/simulator/traces/ocean_8t/ocean5.champsimtrace")
*** Reached end of trace: (4, "/home/harshraj/COALESCE-Hashed-Perceptron-Cache-Replacement-Policy/simulator/traces/ocean_8t/ocean4.champsimtrace")
*** Reached end of trace: (12, "/home/harshraj/COALESCE-Hashed-Perceptron-Cache-Replacement-Policy/simulator/traces/ocean_8t/ocean4.champsimtrace")
*** Reached end of trace: (14, "/home/harshraj/COALESCE-Hashed-Perceptron-Cache-Replacement-Policy/simulator/traces/ocean_8t/ocean6.champsimtrace")
*** Reached end of trace: (6, "/home/harshraj/COALESCE-Hashed-Perceptron-Cache-Replacement-Policy/simulator/traces/ocean_8t/ocean6.champsimtrace")
*** Reached end of trace: (11, "/home/harshraj/COALESCE-Hashed-Perceptron-Cache-Replacement-Policy/simulator/traces/ocean_8t/ocean3.champsimtrace")
*** Reached end of trace: (3, "/home/harshraj/COALESCE-Hashed-Perceptron-Cache-Replacement-Policy/simulator/traces/ocean_8t/ocean3.champsimtrace")
*** Reached end of trace: (7, "/home/harshraj/COALESCE-Hashed-Perceptron-Cache-Replacement-Policy/simulator/traces/ocean_8t/ocean7.champsimtrace")
*** Reached end of trace: (15, "/home/harshraj/COALESCE-Hashed-Perceptron-Cache-Replacement-Policy/simulator/traces/ocean_8t/ocean7.champsimtrace")
Heartbeat CPU 4 instructions: 140000006 cycles: 35010914 heartbeat IPC: 4 cumulative IPC: 3.999 (Simulation time: 04 hr 00 min 45 sec)
Heartbeat CPU 13 instructions: 140000009 cycles: 35010998 heartbeat IPC: 4 cumulative IPC: 3.999 (Simulation time: 04 hr 00 min 45 sec)
Heartbeat CPU 11 instructions: 140000008 cycles: 35011000 heartbeat IPC: 4 cumulative IPC: 3.999 (Simulation time: 04 hr 00 min 45 sec)
Heartbeat CPU 3 instructions: 140000008 cycles: 35011001 heartbeat IPC: 4 cumulative IPC: 3.999 (Simulation time: 04 hr 00 min 45 sec)
Heartbeat CPU 5 instructions: 140000005 cycles: 35011029 heartbeat IPC: 4 cumulative IPC: 3.999 (Simulation time: 04 hr 00 min 45 sec)
Heartbeat CPU 12 instructions: 140000006 cycles: 35011103 heartbeat IPC: 4 cumulative IPC: 3.999 (Simulation time: 04 hr 00 min 45 sec)
Heartbeat CPU 14 instructions: 140000006 cycles: 35011232 heartbeat IPC: 4 cumulative IPC: 3.999 (Simulation time: 04 hr 00 min 45 sec)
Heartbeat CPU 6 instructions: 140000006 cycles: 35011236 heartbeat IPC: 4 cumulative IPC: 3.999 (Simulation time: 04 hr 00 min 45 sec)
Heartbeat CPU 7 instructions: 140000007 cycles: 35011259 heartbeat IPC: 4 cumulative IPC: 3.999 (Simulation time: 04 hr 00 min 45 sec)
Heartbeat CPU 15 instructions: 140000003 cycles: 35011340 heartbeat IPC: 4 cumulative IPC: 3.999 (Simulation time: 04 hr 00 min 45 sec)
Heartbeat CPU 2 instructions: 140000006 cycles: 35012866 heartbeat IPC: 4 cumulative IPC: 3.999 (Simulation time: 04 hr 00 min 46 sec)
Heartbeat CPU 10 instructions: 140000006 cycles: 35013049 heartbeat IPC: 4 cumulative IPC: 3.999 (Simulation time: 04 hr 00 min 46 sec)
Heartbeat CPU 1 instructions: 80000009 cycles: 36241246 heartbeat IPC: 1.801 cumulative IPC: 2.207 (Simulation time: 04 hr 09 min 34 sec)
Heartbeat CPU 9 instructions: 80000013 cycles: 36241249 heartbeat IPC: 1.801 cumulative IPC: 2.207 (Simulation time: 04 hr 09 min 34 sec)
Heartbeat CPU 4 instructions: 150000006 cycles: 37510914 heartbeat IPC: 4 cumulative IPC: 3.999 (Simulation time: 04 hr 18 min 25 sec)
Heartbeat CPU 13 instructions: 150000009 cycles: 37510998 heartbeat IPC: 4 cumulative IPC: 3.999 (Simulation time: 04 hr 18 min 25 sec)
Heartbeat CPU 11 instructions: 150000008 cycles: 37511000 heartbeat IPC: 4 cumulative IPC: 3.999 (Simulation time: 04 hr 18 min 25 sec)
Heartbeat CPU 3 instructions: 150000008 cycles: 37511001 heartbeat IPC: 4 cumulative IPC: 3.999 (Simulation time: 04 hr 18 min 25 sec)
Heartbeat CPU 5 instructions: 150000005 cycles: 37511029 heartbeat IPC: 4 cumulative IPC: 3.999 (Simulation time: 04 hr 18 min 25 sec)
Heartbeat CPU 12 instructions: 150000006 cycles: 37511103 heartbeat IPC: 4 cumulative IPC: 3.999 (Simulation time: 04 hr 18 min 25 sec)
Heartbeat CPU 14 instructions: 150000006 cycles: 37511232 heartbeat IPC: 4 cumulative IPC: 3.999 (Simulation time: 04 hr 18 min 25 sec)
Heartbeat CPU 6 instructions: 150000006 cycles: 37511236 heartbeat IPC: 4 cumulative IPC: 3.999 (Simulation time: 04 hr 18 min 25 sec)
Heartbeat CPU 7 instructions: 150000007 cycles: 37511259 heartbeat IPC: 4 cumulative IPC: 3.999 (Simulation time: 04 hr 18 min 25 sec)
Heartbeat CPU 15 instructions: 150000003 cycles: 37511340 heartbeat IPC: 4 cumulative IPC: 3.999 (Simulation time: 04 hr 18 min 25 sec)
Heartbeat CPU 2 instructions: 150000006 cycles: 37512866 heartbeat IPC: 4 cumulative IPC: 3.999 (Simulation time: 04 hr 18 min 25 sec)
Heartbeat CPU 10 instructions: 150000006 cycles: 37513049 heartbeat IPC: 4 cumulative IPC: 3.999 (Simulation time: 04 hr 18 min 25 sec)
Heartbeat CPU 9 instructions: 90000015 cycles: 39667697 heartbeat IPC: 2.918 cumulative IPC: 2.269 (Simulation time: 04 hr 32 min 29 sec)
Heartbeat CPU 1 instructions: 90000012 cycles: 39667702 heartbeat IPC: 2.918 cumulative IPC: 2.269 (Simulation time: 04 hr 32 min 29 sec)
Heartbeat CPU 4 instructions: 160000006 cycles: 40010914 heartbeat IPC: 4 cumulative IPC: 3.999 (Simulation time: 04 hr 34 min 55 sec)
Heartbeat CPU 13 instructions: 160000009 cycles: 40010998 heartbeat IPC: 4 cumulative IPC: 3.999 (Simulation time: 04 hr 34 min 55 sec)
Heartbeat CPU 11 instructions: 160000008 cycles: 40011000 heartbeat IPC: 4 cumulative IPC: 3.999 (Simulation time: 04 hr 34 min 55 sec)
Heartbeat CPU 3 instructions: 160000008 cycles: 40011001 heartbeat IPC: 4 cumulative IPC: 3.999 (Simulation time: 04 hr 34 min 55 sec)
Heartbeat CPU 5 instructions: 160000005 cycles: 40011029 heartbeat IPC: 4 cumulative IPC: 3.999 (Simulation time: 04 hr 34 min 55 sec)
Heartbeat CPU 12 instructions: 160000006 cycles: 40011103 heartbeat IPC: 4 cumulative IPC: 3.999 (Simulation time: 04 hr 34 min 55 sec)
Heartbeat CPU 14 instructions: 160000006 cycles: 40011232 heartbeat IPC: 4 cumulative IPC: 3.999 (Simulation time: 04 hr 34 min 56 sec)
Heartbeat CPU 6 instructions: 160000006 cycles: 40011236 heartbeat IPC: 4 cumulative IPC: 3.999 (Simulation time: 04 hr 34 min 56 sec)
Heartbeat CPU 7 instructions: 160000007 cycles: 40011259 heartbeat IPC: 4 cumulative IPC: 3.999 (Simulation time: 04 hr 34 min 56 sec)
Heartbeat CPU 15 instructions: 160000003 cycles: 40011340 heartbeat IPC: 4 cumulative IPC: 3.999 (Simulation time: 04 hr 34 min 56 sec)
Heartbeat CPU 2 instructions: 160000006 cycles: 40012866 heartbeat IPC: 4 cumulative IPC: 3.999 (Simulation time: 04 hr 34 min 56 sec)
Heartbeat CPU 10 instructions: 160000006 cycles: 40013049 heartbeat IPC: 4 cumulative IPC: 3.999 (Simulation time: 04 hr 34 min 56 sec)
*** Reached end of trace: (9, "/home/harshraj/COALESCE-Hashed-Perceptron-Cache-Replacement-Policy/simulator/traces/ocean_8t/ocean1.champsimtrace")
*** Reached end of trace: (1, "/home/harshraj/COALESCE-Hashed-Perceptron-Cache-Replacement-Policy/simulator/traces/ocean_8t/ocean1.champsimtrace")
Heartbeat CPU 8 instructions: 20000001 cycles: 41739642 heartbeat IPC: 0.4734 cumulative IPC: 0.4792 (Simulation time: 04 hr 46 min 44 sec)
Heartbeat CPU 0 instructions: 20000001 cycles: 41740376 heartbeat IPC: 0.4734 cumulative IPC: 0.4792 (Simulation time: 04 hr 46 min 44 sec)
Heartbeat CPU 4 instructions: 170000006 cycles: 42510914 heartbeat IPC: 4 cumulative IPC: 3.999 (Simulation time: 04 hr 52 min 12 sec)
Heartbeat CPU 13 instructions: 170000009 cycles: 42510998 heartbeat IPC: 4 cumulative IPC: 3.999 (Simulation time: 04 hr 52 min 12 sec)
Heartbeat CPU 11 instructions: 170000008 cycles: 42511000 heartbeat IPC: 4 cumulative IPC: 3.999 (Simulation time: 04 hr 52 min 12 sec)
Heartbeat CPU 3 instructions: 170000008 cycles: 42511001 heartbeat IPC: 4 cumulative IPC: 3.999 (Simulation time: 04 hr 52 min 12 sec)
Heartbeat CPU 5 instructions: 170000005 cycles: 42511029 heartbeat IPC: 4 cumulative IPC: 3.999 (Simulation time: 04 hr 52 min 12 sec)
Heartbeat CPU 12 instructions: 170000006 cycles: 42511103 heartbeat IPC: 4 cumulative IPC: 3.999 (Simulation time: 04 hr 52 min 12 sec)
Heartbeat CPU 14 instructions: 170000006 cycles: 42511232 heartbeat IPC: 4 cumulative IPC: 3.999 (Simulation time: 04 hr 52 min 12 sec)
Heartbeat CPU 6 instructions: 170000006 cycles: 42511236 heartbeat IPC: 4 cumulative IPC: 3.999 (Simulation time: 04 hr 52 min 12 sec)
Heartbeat CPU 7 instructions: 170000007 cycles: 42511259 heartbeat IPC: 4 cumulative IPC: 3.999 (Simulation time: 04 hr 52 min 12 sec)
Heartbeat CPU 15 instructions: 170000003 cycles: 42511340 heartbeat IPC: 4 cumulative IPC: 3.999 (Simulation time: 04 hr 52 min 12 sec)
Heartbeat CPU 2 instructions: 170000006 cycles: 42512866 heartbeat IPC: 4 cumulative IPC: 3.999 (Simulation time: 04 hr 52 min 12 sec)
Heartbeat CPU 10 instructions: 170000006 cycles: 42513049 heartbeat IPC: 4 cumulative IPC: 3.999 (Simulation time: 04 hr 52 min 12 sec)
Heartbeat CPU 1 instructions: 100000013 cycles: 43762717 heartbeat IPC: 2.442 cumulative IPC: 2.285 (Simulation time: 04 hr 59 min 58 sec)
Heartbeat CPU 9 instructions: 100000017 cycles: 43763387 heartbeat IPC: 2.442 cumulative IPC: 2.285 (Simulation time: 04 hr 59 min 58 sec)
Heartbeat CPU 4 instructions: 180000006 cycles: 45010914 heartbeat IPC: 4 cumulative IPC: 3.999 (Simulation time: 05 hr 08 min 15 sec)
Heartbeat CPU 13 instructions: 180000009 cycles: 45010998 heartbeat IPC: 4 cumulative IPC: 3.999 (Simulation time: 05 hr 08 min 15 sec)
Heartbeat CPU 11 instructions: 180000008 cycles: 45011000 heartbeat IPC: 4 cumulative IPC: 3.999 (Simulation time: 05 hr 08 min 15 sec)
Heartbeat CPU 3 instructions: 180000008 cycles: 45011001 heartbeat IPC: 4 cumulative IPC: 3.999 (Simulation time: 05 hr 08 min 15 sec)
Heartbeat CPU 5 instructions: 180000005 cycles: 45011029 heartbeat IPC: 4 cumulative IPC: 3.999 (Simulation time: 05 hr 08 min 15 sec)
Heartbeat CPU 12 instructions: 180000006 cycles: 45011103 heartbeat IPC: 4 cumulative IPC: 3.999 (Simulation time: 05 hr 08 min 15 sec)
Heartbeat CPU 14 instructions: 180000006 cycles: 45011232 heartbeat IPC: 4 cumulative IPC: 3.999 (Simulation time: 05 hr 08 min 15 sec)
Heartbeat CPU 6 instructions: 180000006 cycles: 45011236 heartbeat IPC: 4 cumulative IPC: 3.999 (Simulation time: 05 hr 08 min 15 sec)
Heartbeat CPU 7 instructions: 180000007 cycles: 45011259 heartbeat IPC: 4 cumulative IPC: 3.999 (Simulation time: 05 hr 08 min 15 sec)
Heartbeat CPU 15 instructions: 180000003 cycles: 45011340 heartbeat IPC: 4 cumulative IPC: 3.999 (Simulation time: 05 hr 08 min 15 sec)
Heartbeat CPU 2 instructions: 180000006 cycles: 45012866 heartbeat IPC: 4 cumulative IPC: 3.999 (Simulation time: 05 hr 08 min 16 sec)
Heartbeat CPU 10 instructions: 180000006 cycles: 45013049 heartbeat IPC: 4 cumulative IPC: 3.999 (Simulation time: 05 hr 08 min 16 sec)
*** Reached end of trace: (2, "/home/harshraj/COALESCE-Hashed-Perceptron-Cache-Replacement-Policy/simulator/traces/ocean_8t/ocean2.champsimtrace")
*** Reached end of trace: (10, "/home/harshraj/COALESCE-Hashed-Perceptron-Cache-Replacement-Policy/simulator/traces/ocean_8t/ocean2.champsimtrace")
*** Reached end of trace: (13, "/home/harshraj/COALESCE-Hashed-Perceptron-Cache-Replacement-Policy/simulator/traces/ocean_8t/ocean5.champsimtrace")
*** Reached end of trace: (5, "/home/harshraj/COALESCE-Hashed-Perceptron-Cache-Replacement-Policy/simulator/traces/ocean_8t/ocean5.champsimtrace")
*** Reached end of trace: (4, "/home/harshraj/COALESCE-Hashed-Perceptron-Cache-Replacement-Policy/simulator/traces/ocean_8t/ocean4.champsimtrace")
*** Reached end of trace: (12, "/home/harshraj/COALESCE-Hashed-Perceptron-Cache-Replacement-Policy/simulator/traces/ocean_8t/ocean4.champsimtrace")
*** Reached end of trace: (14, "/home/harshraj/COALESCE-Hashed-Perceptron-Cache-Replacement-Policy/simulator/traces/ocean_8t/ocean6.champsimtrace")
*** Reached end of trace: (6, "/home/harshraj/COALESCE-Hashed-Perceptron-Cache-Replacement-Policy/simulator/traces/ocean_8t/ocean6.champsimtrace")
*** Reached end of trace: (11, "/home/harshraj/COALESCE-Hashed-Perceptron-Cache-Replacement-Policy/simulator/traces/ocean_8t/ocean3.champsimtrace")
*** Reached end of trace: (3, "/home/harshraj/COALESCE-Hashed-Perceptron-Cache-Replacement-Policy/simulator/traces/ocean_8t/ocean3.champsimtrace")
*** Reached end of trace: (7, "/home/harshraj/COALESCE-Hashed-Perceptron-Cache-Replacement-Policy/simulator/traces/ocean_8t/ocean7.champsimtrace")
*** Reached end of trace: (15, "/home/harshraj/COALESCE-Hashed-Perceptron-Cache-Replacement-Policy/simulator/traces/ocean_8t/ocean7.champsimtrace")
Heartbeat CPU 4 instructions: 190000006 cycles: 47510914 heartbeat IPC: 4 cumulative IPC: 3.999 (Simulation time: 05 hr 25 min 56 sec)
Heartbeat CPU 13 instructions: 190000009 cycles: 47510998 heartbeat IPC: 4 cumulative IPC: 3.999 (Simulation time: 05 hr 25 min 56 sec)
Heartbeat CPU 11 instructions: 190000008 cycles: 47511000 heartbeat IPC: 4 cumulative IPC: 3.999 (Simulation time: 05 hr 25 min 56 sec)
Heartbeat CPU 3 instructions: 190000008 cycles: 47511001 heartbeat IPC: 4 cumulative IPC: 3.999 (Simulation time: 05 hr 25 min 56 sec)
Heartbeat CPU 5 instructions: 190000005 cycles: 47511029 heartbeat IPC: 4 cumulative IPC: 3.999 (Simulation time: 05 hr 25 min 56 sec)
Heartbeat CPU 12 instructions: 190000006 cycles: 47511103 heartbeat IPC: 4 cumulative IPC: 3.999 (Simulation time: 05 hr 25 min 56 sec)
Heartbeat CPU 14 instructions: 190000006 cycles: 47511232 heartbeat IPC: 4 cumulative IPC: 3.999 (Simulation time: 05 hr 25 min 56 sec)
Heartbeat CPU 6 instructions: 190000006 cycles: 47511236 heartbeat IPC: 4 cumulative IPC: 3.999 (Simulation time: 05 hr 25 min 56 sec)
Heartbeat CPU 7 instructions: 190000007 cycles: 47511259 heartbeat IPC: 4 cumulative IPC: 3.999 (Simulation time: 05 hr 25 min 56 sec)
Heartbeat CPU 15 instructions: 190000003 cycles: 47511340 heartbeat IPC: 4 cumulative IPC: 3.999 (Simulation time: 05 hr 25 min 56 sec)
Heartbeat CPU 2 instructions: 190000006 cycles: 47512866 heartbeat IPC: 4 cumulative IPC: 3.999 (Simulation time: 05 hr 25 min 57 sec)
Heartbeat CPU 10 instructions: 190000006 cycles: 47513049 heartbeat IPC: 4 cumulative IPC: 3.999 (Simulation time: 05 hr 25 min 57 sec)
Heartbeat CPU 1 instructions: 110000014 cycles: 47863573 heartbeat IPC: 2.439 cumulative IPC: 2.298 (Simulation time: 05 hr 28 min 20 sec)
Heartbeat CPU 9 instructions: 110000018 cycles: 47863575 heartbeat IPC: 2.439 cumulative IPC: 2.298 (Simulation time: 05 hr 28 min 20 sec)
Heartbeat CPU 4 instructions: 200000006 cycles: 50010914 heartbeat IPC: 4 cumulative IPC: 3.999 (Simulation time: 05 hr 42 min 51 sec)
Heartbeat CPU 13 instructions: 200000009 cycles: 50010998 heartbeat IPC: 4 cumulative IPC: 3.999 (Simulation time: 05 hr 42 min 51 sec)
Heartbeat CPU 11 instructions: 200000008 cycles: 50011000 heartbeat IPC: 4 cumulative IPC: 3.999 (Simulation time: 05 hr 42 min 51 sec)
Heartbeat CPU 3 instructions: 200000008 cycles: 50011001 heartbeat IPC: 4 cumulative IPC: 3.999 (Simulation time: 05 hr 42 min 51 sec)
Heartbeat CPU 5 instructions: 200000005 cycles: 50011029 heartbeat IPC: 4 cumulative IPC: 3.999 (Simulation time: 05 hr 42 min 51 sec)
Heartbeat CPU 12 instructions: 200000006 cycles: 50011103 heartbeat IPC: 4 cumulative IPC: 3.999 (Simulation time: 05 hr 42 min 51 sec)
Heartbeat CPU 14 instructions: 200000006 cycles: 50011232 heartbeat IPC: 4 cumulative IPC: 3.999 (Simulation time: 05 hr 42 min 52 sec)
Heartbeat CPU 6 instructions: 200000006 cycles: 50011236 heartbeat IPC: 4 cumulative IPC: 3.999 (Simulation time: 05 hr 42 min 52 sec)
Heartbeat CPU 7 instructions: 200000007 cycles: 50011259 heartbeat IPC: 4 cumulative IPC: 3.999 (Simulation time: 05 hr 42 min 52 sec)
Heartbeat CPU 15 instructions: 200000003 cycles: 50011340 heartbeat IPC: 4 cumulative IPC: 3.999 (Simulation time: 05 hr 42 min 52 sec)
Heartbeat CPU 2 instructions: 200000006 cycles: 50012866 heartbeat IPC: 4 cumulative IPC: 3.999 (Simulation time: 05 hr 42 min 52 sec)
Heartbeat CPU 10 instructions: 200000006 cycles: 50013049 heartbeat IPC: 4 cumulative IPC: 3.999 (Simulation time: 05 hr 42 min 52 sec)
Heartbeat CPU 4 instructions: 210000006 cycles: 52510914 heartbeat IPC: 4 cumulative IPC: 3.999 (Simulation time: 06 hr 00 min 02 sec)
Heartbeat CPU 13 instructions: 210000009 cycles: 52510998 heartbeat IPC: 4 cumulative IPC: 3.999 (Simulation time: 06 hr 00 min 02 sec)
Heartbeat CPU 11 instructions: 210000008 cycles: 52511000 heartbeat IPC: 4 cumulative IPC: 3.999 (Simulation time: 06 hr 00 min 02 sec)
Heartbeat CPU 3 instructions: 210000008 cycles: 52511001 heartbeat IPC: 4 cumulative IPC: 3.999 (Simulation time: 06 hr 00 min 02 sec)
Heartbeat CPU 5 instructions: 210000005 cycles: 52511029 heartbeat IPC: 4 cumulative IPC: 3.999 (Simulation time: 06 hr 00 min 02 sec)
Heartbeat CPU 12 instructions: 210000006 cycles: 52511103 heartbeat IPC: 4 cumulative IPC: 3.999 (Simulation time: 06 hr 00 min 02 sec)
Heartbeat CPU 14 instructions: 210000006 cycles: 52511232 heartbeat IPC: 4 cumulative IPC: 3.999 (Simulation time: 06 hr 00 min 02 sec)
Heartbeat CPU 6 instructions: 210000006 cycles: 52511236 heartbeat IPC: 4 cumulative IPC: 3.999 (Simulation time: 06 hr 00 min 02 sec)
Heartbeat CPU 7 instructions: 210000007 cycles: 52511259 heartbeat IPC: 4 cumulative IPC: 3.999 (Simulation time: 06 hr 00 min 02 sec)
Heartbeat CPU 15 instructions: 210000003 cycles: 52511340 heartbeat IPC: 4 cumulative IPC: 3.999 (Simulation time: 06 hr 00 min 02 sec)
Heartbeat CPU 2 instructions: 210000006 cycles: 52512866 heartbeat IPC: 4 cumulative IPC: 3.999 (Simulation time: 06 hr 00 min 02 sec)
Heartbeat CPU 10 instructions: 210000006 cycles: 52513049 heartbeat IPC: 4 cumulative IPC: 3.999 (Simulation time: 06 hr 00 min 02 sec)
Heartbeat CPU 1 instructions: 120000014 cycles: 52789050 heartbeat IPC: 2.03 cumulative IPC: 2.273 (Simulation time: 06 hr 01 min 33 sec)
Heartbeat CPU 9 instructions: 120000018 cycles: 52789055 heartbeat IPC: 2.03 cumulative IPC: 2.273 (Simulation time: 06 hr 01 min 33 sec)
Heartbeat CPU 4 instructions: 220000006 cycles: 55010914 heartbeat IPC: 4 cumulative IPC: 3.999 (Simulation time: 06 hr 16 min 35 sec)
Heartbeat CPU 13 instructions: 220000009 cycles: 55010998 heartbeat IPC: 4 cumulative IPC: 3.999 (Simulation time: 06 hr 16 min 35 sec)
Heartbeat CPU 11 instructions: 220000008 cycles: 55011000 heartbeat IPC: 4 cumulative IPC: 3.999 (Simulation time: 06 hr 16 min 35 sec)
Heartbeat CPU 3 instructions: 220000008 cycles: 55011001 heartbeat IPC: 4 cumulative IPC: 3.999 (Simulation time: 06 hr 16 min 35 sec)
Heartbeat CPU 5 instructions: 220000005 cycles: 55011029 heartbeat IPC: 4 cumulative IPC: 3.999 (Simulation time: 06 hr 16 min 35 sec)
Heartbeat CPU 12 instructions: 220000006 cycles: 55011103 heartbeat IPC: 4 cumulative IPC: 3.999 (Simulation time: 06 hr 16 min 36 sec)
Heartbeat CPU 14 instructions: 220000006 cycles: 55011232 heartbeat IPC: 4 cumulative IPC: 3.999 (Simulation time: 06 hr 16 min 36 sec)
Heartbeat CPU 6 instructions: 220000006 cycles: 55011236 heartbeat IPC: 4 cumulative IPC: 3.999 (Simulation time: 06 hr 16 min 36 sec)
Heartbeat CPU 7 instructions: 220000007 cycles: 55011259 heartbeat IPC: 4 cumulative IPC: 3.999 (Simulation time: 06 hr 16 min 36 sec)
Heartbeat CPU 15 instructions: 220000003 cycles: 55011340 heartbeat IPC: 4 cumulative IPC: 3.999 (Simulation time: 06 hr 16 min 36 sec)
Heartbeat CPU 2 instructions: 220000006 cycles: 55012866 heartbeat IPC: 4 cumulative IPC: 3.999 (Simulation time: 06 hr 16 min 36 sec)
Heartbeat CPU 10 instructions: 220000006 cycles: 55013049 heartbeat IPC: 4 cumulative IPC: 3.999 (Simulation time: 06 hr 16 min 36 sec)
*** Reached end of trace: (2, "/home/harshraj/COALESCE-Hashed-Perceptron-Cache-Replacement-Policy/simulator/traces/ocean_8t/ocean2.champsimtrace")
*** Reached end of trace: (10, "/home/harshraj/COALESCE-Hashed-Perceptron-Cache-Replacement-Policy/simulator/traces/ocean_8t/ocean2.champsimtrace")
*** Reached end of trace: (13, "/home/harshraj/COALESCE-Hashed-Perceptron-Cache-Replacement-Policy/simulator/traces/ocean_8t/ocean5.champsimtrace")
*** Reached end of trace: (5, "/home/harshraj/COALESCE-Hashed-Perceptron-Cache-Replacement-Policy/simulator/traces/ocean_8t/ocean5.champsimtrace")
*** Reached end of trace: (4, "/home/harshraj/COALESCE-Hashed-Perceptron-Cache-Replacement-Policy/simulator/traces/ocean_8t/ocean4.champsimtrace")
*** Reached end of trace: (12, "/home/harshraj/COALESCE-Hashed-Perceptron-Cache-Replacement-Policy/simulator/traces/ocean_8t/ocean4.champsimtrace")
*** Reached end of trace: (14, "/home/harshraj/COALESCE-Hashed-Perceptron-Cache-Replacement-Policy/simulator/traces/ocean_8t/ocean6.champsimtrace")
*** Reached end of trace: (6, "/home/harshraj/COALESCE-Hashed-Perceptron-Cache-Replacement-Policy/simulator/traces/ocean_8t/ocean6.champsimtrace")
*** Reached end of trace: (11, "/home/harshraj/COALESCE-Hashed-Perceptron-Cache-Replacement-Policy/simulator/traces/ocean_8t/ocean3.champsimtrace")
*** Reached end of trace: (3, "/home/harshraj/COALESCE-Hashed-Perceptron-Cache-Replacement-Policy/simulator/traces/ocean_8t/ocean3.champsimtrace")
*** Reached end of trace: (7, "/home/harshraj/COALESCE-Hashed-Perceptron-Cache-Replacement-Policy/simulator/traces/ocean_8t/ocean7.champsimtrace")
*** Reached end of trace: (15, "/home/harshraj/COALESCE-Hashed-Perceptron-Cache-Replacement-Policy/simulator/traces/ocean_8t/ocean7.champsimtrace")
Heartbeat CPU 9 instructions: 130000019 cycles: 57270158 heartbeat IPC: 2.232 cumulative IPC: 2.27 (Simulation time: 06 hr 32 min 22 sec)
Heartbeat CPU 1 instructions: 130000015 cycles: 57270161 heartbeat IPC: 2.232 cumulative IPC: 2.27 (Simulation time: 06 hr 32 min 22 sec)
Heartbeat CPU 4 instructions: 230000006 cycles: 57510914 heartbeat IPC: 4 cumulative IPC: 3.999 (Simulation time: 06 hr 33 min 57 sec)
Heartbeat CPU 13 instructions: 230000009 cycles: 57510998 heartbeat IPC: 4 cumulative IPC: 3.999 (Simulation time: 06 hr 33 min 57 sec)
Heartbeat CPU 11 instructions: 230000008 cycles: 57511000 heartbeat IPC: 4 cumulative IPC: 3.999 (Simulation time: 06 hr 33 min 57 sec)
Heartbeat CPU 3 instructions: 230000008 cycles: 57511001 heartbeat IPC: 4 cumulative IPC: 3.999 (Simulation time: 06 hr 33 min 57 sec)
Heartbeat CPU 5 instructions: 230000005 cycles: 57511029 heartbeat IPC: 4 cumulative IPC: 3.999 (Simulation time: 06 hr 33 min 57 sec)
Heartbeat CPU 12 instructions: 230000006 cycles: 57511103 heartbeat IPC: 4 cumulative IPC: 3.999 (Simulation time: 06 hr 33 min 57 sec)
Heartbeat CPU 14 instructions: 230000006 cycles: 57511232 heartbeat IPC: 4 cumulative IPC: 3.999 (Simulation time: 06 hr 33 min 57 sec)
Heartbeat CPU 6 instructions: 230000006 cycles: 57511236 heartbeat IPC: 4 cumulative IPC: 3.999 (Simulation time: 06 hr 33 min 57 sec)
Heartbeat CPU 7 instructions: 230000007 cycles: 57511259 heartbeat IPC: 4 cumulative IPC: 3.999 (Simulation time: 06 hr 33 min 57 sec)
Heartbeat CPU 15 instructions: 230000003 cycles: 57511340 heartbeat IPC: 4 cumulative IPC: 3.999 (Simulation time: 06 hr 33 min 57 sec)
Heartbeat CPU 2 instructions: 230000006 cycles: 57512866 heartbeat IPC: 4 cumulative IPC: 3.999 (Simulation time: 06 hr 33 min 58 sec)
Heartbeat CPU 10 instructions: 230000006 cycles: 57513049 heartbeat IPC: 4 cumulative IPC: 3.999 (Simulation time: 06 hr 33 min 58 sec)
*** Reached end of trace: (9, "/home/harshraj/COALESCE-Hashed-Perceptron-Cache-Replacement-Policy/simulator/traces/ocean_8t/ocean1.champsimtrace")
*** Reached end of trace: (1, "/home/harshraj/COALESCE-Hashed-Perceptron-Cache-Replacement-Policy/simulator/traces/ocean_8t/ocean1.champsimtrace")
Heartbeat CPU 4 instructions: 240000006 cycles: 60010914 heartbeat IPC: 4 cumulative IPC: 3.999 (Simulation time: 06 hr 51 min 09 sec)
Heartbeat CPU 13 instructions: 240000009 cycles: 60010998 heartbeat IPC: 4 cumulative IPC: 3.999 (Simulation time: 06 hr 51 min 09 sec)
Heartbeat CPU 11 instructions: 240000008 cycles: 60011000 heartbeat IPC: 4 cumulative IPC: 3.999 (Simulation time: 06 hr 51 min 09 sec)
Heartbeat CPU 3 instructions: 240000008 cycles: 60011001 heartbeat IPC: 4 cumulative IPC: 3.999 (Simulation time: 06 hr 51 min 09 sec)
Heartbeat CPU 5 instructions: 240000005 cycles: 60011029 heartbeat IPC: 4 cumulative IPC: 3.999 (Simulation time: 06 hr 51 min 09 sec)
Heartbeat CPU 12 instructions: 240000006 cycles: 60011103 heartbeat IPC: 4 cumulative IPC: 3.999 (Simulation time: 06 hr 51 min 09 sec)
Heartbeat CPU 14 instructions: 240000006 cycles: 60011232 heartbeat IPC: 4 cumulative IPC: 3.999 (Simulation time: 06 hr 51 min 09 sec)
Heartbeat CPU 6 instructions: 240000006 cycles: 60011236 heartbeat IPC: 4 cumulative IPC: 3.999 (Simulation time: 06 hr 51 min 09 sec)
Heartbeat CPU 7 instructions: 240000007 cycles: 60011259 heartbeat IPC: 4 cumulative IPC: 3.999 (Simulation time: 06 hr 51 min 09 sec)
Heartbeat CPU 15 instructions: 240000003 cycles: 60011340 heartbeat IPC: 4 cumulative IPC: 3.999 (Simulation time: 06 hr 51 min 09 sec)
Heartbeat CPU 2 instructions: 240000006 cycles: 60012866 heartbeat IPC: 4 cumulative IPC: 3.999 (Simulation time: 06 hr 51 min 10 sec)
Heartbeat CPU 10 instructions: 240000006 cycles: 60013049 heartbeat IPC: 4 cumulative IPC: 3.999 (Simulation time: 06 hr 51 min 10 sec)
Heartbeat CPU 1 instructions: 140000015 cycles: 61001242 heartbeat IPC: 2.68 cumulative IPC: 2.295 (Simulation time: 06 hr 58 min 10 sec)
Heartbeat CPU 9 instructions: 140000019 cycles: 61001256 heartbeat IPC: 2.68 cumulative IPC: 2.295 (Simulation time: 06 hr 58 min 10 sec)
Heartbeat CPU 8 instructions: 30000005 cycles: 61799415 heartbeat IPC: 0.4985 cumulative IPC: 0.4854 (Simulation time: 07 hr 03 min 20 sec)
Heartbeat CPU 0 instructions: 30000005 cycles: 61809778 heartbeat IPC: 0.4983 cumulative IPC: 0.4854 (Simulation time: 07 hr 03 min 24 sec)
Heartbeat CPU 4 instructions: 250000006 cycles: 62510914 heartbeat IPC: 4 cumulative IPC: 3.999 (Simulation time: 07 hr 07 min 26 sec)
Heartbeat CPU 13 instructions: 250000009 cycles: 62510998 heartbeat IPC: 4 cumulative IPC: 3.999 (Simulation time: 07 hr 07 min 26 sec)
Heartbeat CPU 11 instructions: 250000008 cycles: 62511000 heartbeat IPC: 4 cumulative IPC: 3.999 (Simulation time: 07 hr 07 min 26 sec)
Heartbeat CPU 3 instructions: 250000008 cycles: 62511001 heartbeat IPC: 4 cumulative IPC: 3.999 (Simulation time: 07 hr 07 min 26 sec)
Heartbeat CPU 5 instructions: 250000005 cycles: 62511029 heartbeat IPC: 4 cumulative IPC: 3.999 (Simulation time: 07 hr 07 min 26 sec)
Heartbeat CPU 12 instructions: 250000006 cycles: 62511103 heartbeat IPC: 4 cumulative IPC: 3.999 (Simulation time: 07 hr 07 min 26 sec)
Heartbeat CPU 14 instructions: 250000006 cycles: 62511232 heartbeat IPC: 4 cumulative IPC: 3.999 (Simulation time: 07 hr 07 min 26 sec)
Heartbeat CPU 6 instructions: 250000006 cycles: 62511236 heartbeat IPC: 4 cumulative IPC: 3.999 (Simulation time: 07 hr 07 min 26 sec)
Heartbeat CPU 7 instructions: 250000007 cycles: 62511259 heartbeat IPC: 4 cumulative IPC: 3.999 (Simulation time: 07 hr 07 min 26 sec)
Heartbeat CPU 15 instructions: 250000003 cycles: 62511340 heartbeat IPC: 4 cumulative IPC: 3.999 (Simulation time: 07 hr 07 min 26 sec)
Heartbeat CPU 2 instructions: 250000006 cycles: 62512866 heartbeat IPC: 4 cumulative IPC: 3.999 (Simulation time: 07 hr 07 min 27 sec)
Heartbeat CPU 10 instructions: 250000006 cycles: 62513049 heartbeat IPC: 4 cumulative IPC: 3.999 (Simulation time: 07 hr 07 min 27 sec)
Heartbeat CPU 4 instructions: 260000006 cycles: 65010914 heartbeat IPC: 4 cumulative IPC: 3.999 (Simulation time: 07 hr 25 min 01 sec)
Heartbeat CPU 13 instructions: 260000009 cycles: 65010998 heartbeat IPC: 4 cumulative IPC: 3.999 (Simulation time: 07 hr 25 min 01 sec)
Heartbeat CPU 11 instructions: 260000008 cycles: 65011000 heartbeat IPC: 4 cumulative IPC: 3.999 (Simulation time: 07 hr 25 min 01 sec)
Heartbeat CPU 3 instructions: 260000008 cycles: 65011001 heartbeat IPC: 4 cumulative IPC: 3.999 (Simulation time: 07 hr 25 min 01 sec)
Heartbeat CPU 5 instructions: 260000005 cycles: 65011029 heartbeat IPC: 4 cumulative IPC: 3.999 (Simulation time: 07 hr 25 min 01 sec)
Heartbeat CPU 12 instructions: 260000006 cycles: 65011103 heartbeat IPC: 4 cumulative IPC: 3.999 (Simulation time: 07 hr 25 min 02 sec)
Heartbeat CPU 14 instructions: 260000006 cycles: 65011232 heartbeat IPC: 4 cumulative IPC: 3.999 (Simulation time: 07 hr 25 min 02 sec)
Heartbeat CPU 6 instructions: 260000006 cycles: 65011236 heartbeat IPC: 4 cumulative IPC: 3.999 (Simulation time: 07 hr 25 min 02 sec)
Heartbeat CPU 7 instructions: 260000007 cycles: 65011259 heartbeat IPC: 4 cumulative IPC: 3.999 (Simulation time: 07 hr 25 min 02 sec)
Heartbeat CPU 15 instructions: 260000003 cycles: 65011340 heartbeat IPC: 4 cumulative IPC: 3.999 (Simulation time: 07 hr 25 min 02 sec)
Heartbeat CPU 2 instructions: 260000006 cycles: 65012866 heartbeat IPC: 4 cumulative IPC: 3.999 (Simulation time: 07 hr 25 min 02 sec)
Heartbeat CPU 10 instructions: 260000006 cycles: 65013049 heartbeat IPC: 4 cumulative IPC: 3.999 (Simulation time: 07 hr 25 min 02 sec)
Heartbeat CPU 1 instructions: 150000015 cycles: 65201958 heartbeat IPC: 2.381 cumulative IPC: 2.301 (Simulation time: 07 hr 26 min 26 sec)
Heartbeat CPU 9 instructions: 150000020 cycles: 65202144 heartbeat IPC: 2.38 cumulative IPC: 2.301 (Simulation time: 07 hr 26 min 26 sec)
Heartbeat CPU 4 instructions: 270000006 cycles: 67510914 heartbeat IPC: 4 cumulative IPC: 3.999 (Simulation time: 07 hr 42 min 29 sec)
Heartbeat CPU 13 instructions: 270000009 cycles: 67510998 heartbeat IPC: 4 cumulative IPC: 3.999 (Simulation time: 07 hr 42 min 29 sec)
Heartbeat CPU 11 instructions: 270000008 cycles: 67511000 heartbeat IPC: 4 cumulative IPC: 3.999 (Simulation time: 07 hr 42 min 29 sec)
Heartbeat CPU 3 instructions: 270000008 cycles: 67511001 heartbeat IPC: 4 cumulative IPC: 3.999 (Simulation time: 07 hr 42 min 29 sec)
Heartbeat CPU 5 instructions: 270000005 cycles: 67511029 heartbeat IPC: 4 cumulative IPC: 3.999 (Simulation time: 07 hr 42 min 29 sec)
Heartbeat CPU 12 instructions: 270000006 cycles: 67511103 heartbeat IPC: 4 cumulative IPC: 3.999 (Simulation time: 07 hr 42 min 29 sec)
Heartbeat CPU 14 instructions: 270000006 cycles: 67511232 heartbeat IPC: 4 cumulative IPC: 3.999 (Simulation time: 07 hr 42 min 29 sec)
Heartbeat CPU 6 instructions: 270000006 cycles: 67511236 heartbeat IPC: 4 cumulative IPC: 3.999 (Simulation time: 07 hr 42 min 29 sec)
Heartbeat CPU 7 instructions: 270000007 cycles: 67511259 heartbeat IPC: 4 cumulative IPC: 3.999 (Simulation time: 07 hr 42 min 29 sec)
Heartbeat CPU 15 instructions: 270000003 cycles: 67511340 heartbeat IPC: 4 cumulative IPC: 3.999 (Simulation time: 07 hr 42 min 29 sec)
Heartbeat CPU 2 instructions: 270000006 cycles: 67512866 heartbeat IPC: 4 cumulative IPC: 3.999 (Simulation time: 07 hr 42 min 29 sec)
Heartbeat CPU 10 instructions: 270000006 cycles: 67513049 heartbeat IPC: 4 cumulative IPC: 3.999 (Simulation time: 07 hr 42 min 29 sec)
*** Reached end of trace: (2, "/home/harshraj/COALESCE-Hashed-Perceptron-Cache-Replacement-Policy/simulator/traces/ocean_8t/ocean2.champsimtrace")
*** Reached end of trace: (10, "/home/harshraj/COALESCE-Hashed-Perceptron-Cache-Replacement-Policy/simulator/traces/ocean_8t/ocean2.champsimtrace")
*** Reached end of trace: (13, "/home/harshraj/COALESCE-Hashed-Perceptron-Cache-Replacement-Policy/simulator/traces/ocean_8t/ocean5.champsimtrace")
*** Reached end of trace: (5, "/home/harshraj/COALESCE-Hashed-Perceptron-Cache-Replacement-Policy/simulator/traces/ocean_8t/ocean5.champsimtrace")
*** Reached end of trace: (4, "/home/harshraj/COALESCE-Hashed-Perceptron-Cache-Replacement-Policy/simulator/traces/ocean_8t/ocean4.champsimtrace")
*** Reached end of trace: (12, "/home/harshraj/COALESCE-Hashed-Perceptron-Cache-Replacement-Policy/simulator/traces/ocean_8t/ocean4.champsimtrace")
*** Reached end of trace: (14, "/home/harshraj/COALESCE-Hashed-Perceptron-Cache-Replacement-Policy/simulator/traces/ocean_8t/ocean6.champsimtrace")
*** Reached end of trace: (6, "/home/harshraj/COALESCE-Hashed-Perceptron-Cache-Replacement-Policy/simulator/traces/ocean_8t/ocean6.champsimtrace")
*** Reached end of trace: (11, "/home/harshraj/COALESCE-Hashed-Perceptron-Cache-Replacement-Policy/simulator/traces/ocean_8t/ocean3.champsimtrace")
*** Reached end of trace: (3, "/home/harshraj/COALESCE-Hashed-Perceptron-Cache-Replacement-Policy/simulator/traces/ocean_8t/ocean3.champsimtrace")
*** Reached end of trace: (7, "/home/harshraj/COALESCE-Hashed-Perceptron-Cache-Replacement-Policy/simulator/traces/ocean_8t/ocean7.champsimtrace")
*** Reached end of trace: (15, "/home/harshraj/COALESCE-Hashed-Perceptron-Cache-Replacement-Policy/simulator/traces/ocean_8t/ocean7.champsimtrace")
Heartbeat CPU 9 instructions: 160000022 cycles: 69322628 heartbeat IPC: 2.427 cumulative IPC: 2.308 (Simulation time: 07 hr 55 min 32 sec)
Heartbeat CPU 1 instructions: 160000018 cycles: 69322629 heartbeat IPC: 2.427 cumulative IPC: 2.308 (Simulation time: 07 hr 55 min 32 sec)
Heartbeat CPU 4 instructions: 280000006 cycles: 70010914 heartbeat IPC: 4 cumulative IPC: 3.999 (Simulation time: 08 hr 00 min 28 sec)
Heartbeat CPU 13 instructions: 280000009 cycles: 70010998 heartbeat IPC: 4 cumulative IPC: 3.999 (Simulation time: 08 hr 00 min 28 sec)
Heartbeat CPU 11 instructions: 280000008 cycles: 70011000 heartbeat IPC: 4 cumulative IPC: 3.999 (Simulation time: 08 hr 00 min 28 sec)
Heartbeat CPU 3 instructions: 280000008 cycles: 70011001 heartbeat IPC: 4 cumulative IPC: 3.999 (Simulation time: 08 hr 00 min 28 sec)
Heartbeat CPU 5 instructions: 280000005 cycles: 70011029 heartbeat IPC: 4 cumulative IPC: 3.999 (Simulation time: 08 hr 00 min 28 sec)
Heartbeat CPU 12 instructions: 280000006 cycles: 70011103 heartbeat IPC: 4 cumulative IPC: 3.999 (Simulation time: 08 hr 00 min 28 sec)
Heartbeat CPU 14 instructions: 280000006 cycles: 70011232 heartbeat IPC: 4 cumulative IPC: 3.999 (Simulation time: 08 hr 00 min 28 sec)
Heartbeat CPU 6 instructions: 280000006 cycles: 70011236 heartbeat IPC: 4 cumulative IPC: 3.999 (Simulation time: 08 hr 00 min 28 sec)
Heartbeat CPU 7 instructions: 280000007 cycles: 70011259 heartbeat IPC: 4 cumulative IPC: 3.999 (Simulation time: 08 hr 00 min 28 sec)
Heartbeat CPU 15 instructions: 280000003 cycles: 70011340 heartbeat IPC: 4 cumulative IPC: 3.999 (Simulation time: 08 hr 00 min 28 sec)
Heartbeat CPU 2 instructions: 280000006 cycles: 70012866 heartbeat IPC: 4 cumulative IPC: 3.999 (Simulation time: 08 hr 00 min 29 sec)
Heartbeat CPU 10 instructions: 280000006 cycles: 70013049 heartbeat IPC: 4 cumulative IPC: 3.999 (Simulation time: 08 hr 00 min 29 sec)
Heartbeat CPU 4 instructions: 290000006 cycles: 72510914 heartbeat IPC: 4 cumulative IPC: 3.999 (Simulation time: 08 hr 17 min 13 sec)
Heartbeat CPU 13 instructions: 290000009 cycles: 72510998 heartbeat IPC: 4 cumulative IPC: 3.999 (Simulation time: 08 hr 17 min 13 sec)
Heartbeat CPU 11 instructions: 290000008 cycles: 72511000 heartbeat IPC: 4 cumulative IPC: 3.999 (Simulation time: 08 hr 17 min 13 sec)
Heartbeat CPU 3 instructions: 290000008 cycles: 72511001 heartbeat IPC: 4 cumulative IPC: 3.999 (Simulation time: 08 hr 17 min 13 sec)
Heartbeat CPU 5 instructions: 290000005 cycles: 72511029 heartbeat IPC: 4 cumulative IPC: 3.999 (Simulation time: 08 hr 17 min 13 sec)
Heartbeat CPU 12 instructions: 290000006 cycles: 72511103 heartbeat IPC: 4 cumulative IPC: 3.999 (Simulation time: 08 hr 17 min 13 sec)
Heartbeat CPU 14 instructions: 290000006 cycles: 72511232 heartbeat IPC: 4 cumulative IPC: 3.999 (Simulation time: 08 hr 17 min 13 sec)
Heartbeat CPU 6 instructions: 290000006 cycles: 72511236 heartbeat IPC: 4 cumulative IPC: 3.999 (Simulation time: 08 hr 17 min 13 sec)
Heartbeat CPU 7 instructions: 290000007 cycles: 72511259 heartbeat IPC: 4 cumulative IPC: 3.999 (Simulation time: 08 hr 17 min 13 sec)
Heartbeat CPU 15 instructions: 290000003 cycles: 72511340 heartbeat IPC: 4 cumulative IPC: 3.999 (Simulation time: 08 hr 17 min 13 sec)
Heartbeat CPU 2 instructions: 290000006 cycles: 72512866 heartbeat IPC: 4 cumulative IPC: 3.999 (Simulation time: 08 hr 17 min 14 sec)
Heartbeat CPU 10 instructions: 290000006 cycles: 72513049 heartbeat IPC: 4 cumulative IPC: 3.999 (Simulation time: 08 hr 17 min 14 sec)
Heartbeat CPU 1 instructions: 170000018 cycles: 74894110 heartbeat IPC: 1.795 cumulative IPC: 2.27 (Simulation time: 08 hr 33 min 39 sec)
Heartbeat CPU 9 instructions: 170000022 cycles: 74894113 heartbeat IPC: 1.795 cumulative IPC: 2.27 (Simulation time: 08 hr 33 min 39 sec)
Heartbeat CPU 4 instructions: 300000006 cycles: 75010914 heartbeat IPC: 4 cumulative IPC: 3.999 (Simulation time: 08 hr 34 min 27 sec)
Heartbeat CPU 13 instructions: 300000009 cycles: 75010998 heartbeat IPC: 4 cumulative IPC: 3.999 (Simulation time: 08 hr 34 min 27 sec)
Heartbeat CPU 11 instructions: 300000008 cycles: 75011000 heartbeat IPC: 4 cumulative IPC: 3.999 (Simulation time: 08 hr 34 min 27 sec)
Heartbeat CPU 3 instructions: 300000008 cycles: 75011001 heartbeat IPC: 4 cumulative IPC: 3.999 (Simulation time: 08 hr 34 min 27 sec)
Heartbeat CPU 5 instructions: 300000005 cycles: 75011029 heartbeat IPC: 4 cumulative IPC: 3.999 (Simulation time: 08 hr 34 min 27 sec)
Heartbeat CPU 12 instructions: 300000006 cycles: 75011103 heartbeat IPC: 4 cumulative IPC: 3.999 (Simulation time: 08 hr 34 min 27 sec)
Heartbeat CPU 14 instructions: 300000006 cycles: 75011232 heartbeat IPC: 4 cumulative IPC: 3.999 (Simulation time: 08 hr 34 min 27 sec)
Heartbeat CPU 6 instructions: 300000006 cycles: 75011236 heartbeat IPC: 4 cumulative IPC: 3.999 (Simulation time: 08 hr 34 min 27 sec)
Heartbeat CPU 7 instructions: 300000007 cycles: 75011259 heartbeat IPC: 4 cumulative IPC: 3.999 (Simulation time: 08 hr 34 min 27 sec)
Heartbeat CPU 15 instructions: 300000003 cycles: 75011340 heartbeat IPC: 4 cumulative IPC: 3.999 (Simulation time: 08 hr 34 min 27 sec)
Heartbeat CPU 2 instructions: 300000006 cycles: 75012866 heartbeat IPC: 4 cumulative IPC: 3.999 (Simulation time: 08 hr 34 min 27 sec)
Heartbeat CPU 10 instructions: 300000006 cycles: 75013049 heartbeat IPC: 4 cumulative IPC: 3.999 (Simulation time: 08 hr 34 min 27 sec)
Heartbeat CPU 4 instructions: 310000006 cycles: 77510914 heartbeat IPC: 4 cumulative IPC: 3.999 (Simulation time: 08 hr 51 min 19 sec)
Heartbeat CPU 13 instructions: 310000009 cycles: 77510998 heartbeat IPC: 4 cumulative IPC: 3.999 (Simulation time: 08 hr 51 min 19 sec)
Heartbeat CPU 11 instructions: 310000008 cycles: 77511000 heartbeat IPC: 4 cumulative IPC: 3.999 (Simulation time: 08 hr 51 min 19 sec)
Heartbeat CPU 3 instructions: 310000008 cycles: 77511001 heartbeat IPC: 4 cumulative IPC: 3.999 (Simulation time: 08 hr 51 min 19 sec)
Heartbeat CPU 5 instructions: 310000005 cycles: 77511029 heartbeat IPC: 4 cumulative IPC: 3.999 (Simulation time: 08 hr 51 min 19 sec)
Heartbeat CPU 12 instructions: 310000006 cycles: 77511103 heartbeat IPC: 4 cumulative IPC: 3.999 (Simulation time: 08 hr 51 min 19 sec)
Heartbeat CPU 14 instructions: 310000006 cycles: 77511232 heartbeat IPC: 4 cumulative IPC: 3.999 (Simulation time: 08 hr 51 min 19 sec)
Heartbeat CPU 6 instructions: 310000006 cycles: 77511236 heartbeat IPC: 4 cumulative IPC: 3.999 (Simulation time: 08 hr 51 min 19 sec)
Heartbeat CPU 7 instructions: 310000007 cycles: 77511259 heartbeat IPC: 4 cumulative IPC: 3.999 (Simulation time: 08 hr 51 min 19 sec)
Heartbeat CPU 15 instructions: 310000003 cycles: 77511340 heartbeat IPC: 4 cumulative IPC: 3.999 (Simulation time: 08 hr 51 min 19 sec)
Heartbeat CPU 2 instructions: 310000006 cycles: 77512866 heartbeat IPC: 4 cumulative IPC: 3.999 (Simulation time: 08 hr 51 min 19 sec)
Heartbeat CPU 10 instructions: 310000006 cycles: 77513049 heartbeat IPC: 4 cumulative IPC: 3.999 (Simulation time: 08 hr 51 min 20 sec)
Heartbeat CPU 1 instructions: 180000021 cycles: 78435397 heartbeat IPC: 2.824 cumulative IPC: 2.295 (Simulation time: 08 hr 57 min 32 sec)
Heartbeat CPU 9 instructions: 180000025 cycles: 78435407 heartbeat IPC: 2.824 cumulative IPC: 2.295 (Simulation time: 08 hr 57 min 32 sec)
*** Reached end of trace: (2, "/home/harshraj/COALESCE-Hashed-Perceptron-Cache-Replacement-Policy/simulator/traces/ocean_8t/ocean2.champsimtrace")
*** Reached end of trace: (10, "/home/harshraj/COALESCE-Hashed-Perceptron-Cache-Replacement-Policy/simulator/traces/ocean_8t/ocean2.champsimtrace")
*** Reached end of trace: (9, "/home/harshraj/COALESCE-Hashed-Perceptron-Cache-Replacement-Policy/simulator/traces/ocean_8t/ocean1.champsimtrace")
*** Reached end of trace: (1, "/home/harshraj/COALESCE-Hashed-Perceptron-Cache-Replacement-Policy/simulator/traces/ocean_8t/ocean1.champsimtrace")
*** Reached end of trace: (13, "/home/harshraj/COALESCE-Hashed-Perceptron-Cache-Replacement-Policy/simulator/traces/ocean_8t/ocean5.champsimtrace")
*** Reached end of trace: (5, "/home/harshraj/COALESCE-Hashed-Perceptron-Cache-Replacement-Policy/simulator/traces/ocean_8t/ocean5.champsimtrace")
*** Reached end of trace: (4, "/home/harshraj/COALESCE-Hashed-Perceptron-Cache-Replacement-Policy/simulator/traces/ocean_8t/ocean4.champsimtrace")
*** Reached end of trace: (12, "/home/harshraj/COALESCE-Hashed-Perceptron-Cache-Replacement-Policy/simulator/traces/ocean_8t/ocean4.champsimtrace")
*** Reached end of trace: (14, "/home/harshraj/COALESCE-Hashed-Perceptron-Cache-Replacement-Policy/simulator/traces/ocean_8t/ocean6.champsimtrace")
*** Reached end of trace: (6, "/home/harshraj/COALESCE-Hashed-Perceptron-Cache-Replacement-Policy/simulator/traces/ocean_8t/ocean6.champsimtrace")
*** Reached end of trace: (11, "/home/harshraj/COALESCE-Hashed-Perceptron-Cache-Replacement-Policy/simulator/traces/ocean_8t/ocean3.champsimtrace")
*** Reached end of trace: (3, "/home/harshraj/COALESCE-Hashed-Perceptron-Cache-Replacement-Policy/simulator/traces/ocean_8t/ocean3.champsimtrace")
*** Reached end of trace: (7, "/home/harshraj/COALESCE-Hashed-Perceptron-Cache-Replacement-Policy/simulator/traces/ocean_8t/ocean7.champsimtrace")
*** Reached end of trace: (15, "/home/harshraj/COALESCE-Hashed-Perceptron-Cache-Replacement-Policy/simulator/traces/ocean_8t/ocean7.champsimtrace")
Heartbeat CPU 4 instructions: 320000006 cycles: 80010914 heartbeat IPC: 4 cumulative IPC: 3.999 (Simulation time: 09 hr 08 min 51 sec)
Heartbeat CPU 13 instructions: 320000009 cycles: 80010998 heartbeat IPC: 4 cumulative IPC: 3.999 (Simulation time: 09 hr 08 min 51 sec)
Heartbeat CPU 11 instructions: 320000008 cycles: 80011000 heartbeat IPC: 4 cumulative IPC: 3.999 (Simulation time: 09 hr 08 min 51 sec)
Heartbeat CPU 3 instructions: 320000008 cycles: 80011001 heartbeat IPC: 4 cumulative IPC: 3.999 (Simulation time: 09 hr 08 min 51 sec)
Heartbeat CPU 5 instructions: 320000005 cycles: 80011029 heartbeat IPC: 4 cumulative IPC: 3.999 (Simulation time: 09 hr 08 min 52 sec)
Heartbeat CPU 12 instructions: 320000006 cycles: 80011103 heartbeat IPC: 4 cumulative IPC: 3.999 (Simulation time: 09 hr 08 min 52 sec)
Heartbeat CPU 14 instructions: 320000006 cycles: 80011232 heartbeat IPC: 4 cumulative IPC: 3.999 (Simulation time: 09 hr 08 min 52 sec)
Heartbeat CPU 6 instructions: 320000006 cycles: 80011236 heartbeat IPC: 4 cumulative IPC: 3.999 (Simulation time: 09 hr 08 min 52 sec)
Heartbeat CPU 7 instructions: 320000007 cycles: 80011259 heartbeat IPC: 4 cumulative IPC: 3.999 (Simulation time: 09 hr 08 min 52 sec)
Heartbeat CPU 15 instructions: 320000003 cycles: 80011340 heartbeat IPC: 4 cumulative IPC: 3.999 (Simulation time: 09 hr 08 min 52 sec)
Heartbeat CPU 2 instructions: 320000006 cycles: 80012866 heartbeat IPC: 4 cumulative IPC: 3.999 (Simulation time: 09 hr 08 min 52 sec)
Heartbeat CPU 10 instructions: 320000006 cycles: 80013049 heartbeat IPC: 4 cumulative IPC: 3.999 (Simulation time: 09 hr 08 min 52 sec)
Heartbeat CPU 1 instructions: 190000024 cycles: 82443313 heartbeat IPC: 2.495 cumulative IPC: 2.305 (Simulation time: 09 hr 25 min 06 sec)
Heartbeat CPU 9 instructions: 190000028 cycles: 82443470 heartbeat IPC: 2.495 cumulative IPC: 2.305 (Simulation time: 09 hr 25 min 06 sec)
Heartbeat CPU 4 instructions: 330000006 cycles: 82510914 heartbeat IPC: 4 cumulative IPC: 3.999 (Simulation time: 09 hr 25 min 33 sec)
Heartbeat CPU 13 instructions: 330000009 cycles: 82510998 heartbeat IPC: 4 cumulative IPC: 3.999 (Simulation time: 09 hr 25 min 34 sec)
Heartbeat CPU 11 instructions: 330000008 cycles: 82511000 heartbeat IPC: 4 cumulative IPC: 3.999 (Simulation time: 09 hr 25 min 34 sec)
Heartbeat CPU 3 instructions: 330000008 cycles: 82511001 heartbeat IPC: 4 cumulative IPC: 3.999 (Simulation time: 09 hr 25 min 34 sec)
Heartbeat CPU 5 instructions: 330000005 cycles: 82511029 heartbeat IPC: 4 cumulative IPC: 3.999 (Simulation time: 09 hr 25 min 34 sec)
Heartbeat CPU 12 instructions: 330000006 cycles: 82511103 heartbeat IPC: 4 cumulative IPC: 3.999 (Simulation time: 09 hr 25 min 34 sec)
Heartbeat CPU 14 instructions: 330000006 cycles: 82511232 heartbeat IPC: 4 cumulative IPC: 3.999 (Simulation time: 09 hr 25 min 34 sec)
Heartbeat CPU 6 instructions: 330000006 cycles: 82511236 heartbeat IPC: 4 cumulative IPC: 3.999 (Simulation time: 09 hr 25 min 34 sec)
Heartbeat CPU 7 instructions: 330000007 cycles: 82511259 heartbeat IPC: 4 cumulative IPC: 3.999 (Simulation time: 09 hr 25 min 34 sec)
Heartbeat CPU 15 instructions: 330000003 cycles: 82511340 heartbeat IPC: 4 cumulative IPC: 3.999 (Simulation time: 09 hr 25 min 34 sec)
Heartbeat CPU 2 instructions: 330000006 cycles: 82512866 heartbeat IPC: 4 cumulative IPC: 3.999 (Simulation time: 09 hr 25 min 34 sec)
Heartbeat CPU 10 instructions: 330000006 cycles: 82513049 heartbeat IPC: 4 cumulative IPC: 3.999 (Simulation time: 09 hr 25 min 34 sec)
Heartbeat CPU 8 instructions: 40000006 cycles: 84234689 heartbeat IPC: 0.4457 cumulative IPC: 0.4749 (Simulation time: 09 hr 37 min 37 sec)
Heartbeat CPU 0 instructions: 40000006 cycles: 84235909 heartbeat IPC: 0.4459 cumulative IPC: 0.4749 (Simulation time: 09 hr 37 min 37 sec)
Heartbeat CPU 4 instructions: 340000006 cycles: 85010914 heartbeat IPC: 4 cumulative IPC: 3.999 (Simulation time: 09 hr 42 min 34 sec)
Heartbeat CPU 13 instructions: 340000009 cycles: 85010998 heartbeat IPC: 4 cumulative IPC: 3.999 (Simulation time: 09 hr 42 min 34 sec)
Heartbeat CPU 11 instructions: 340000008 cycles: 85011000 heartbeat IPC: 4 cumulative IPC: 3.999 (Simulation time: 09 hr 42 min 34 sec)
Heartbeat CPU 3 instructions: 340000008 cycles: 85011001 heartbeat IPC: 4 cumulative IPC: 3.999 (Simulation time: 09 hr 42 min 34 sec)
Heartbeat CPU 5 instructions: 340000005 cycles: 85011029 heartbeat IPC: 4 cumulative IPC: 3.999 (Simulation time: 09 hr 42 min 35 sec)
Heartbeat CPU 12 instructions: 340000006 cycles: 85011103 heartbeat IPC: 4 cumulative IPC: 3.999 (Simulation time: 09 hr 42 min 35 sec)
Heartbeat CPU 14 instructions: 340000006 cycles: 85011232 heartbeat IPC: 4 cumulative IPC: 3.999 (Simulation time: 09 hr 42 min 35 sec)
Heartbeat CPU 6 instructions: 340000006 cycles: 85011236 heartbeat IPC: 4 cumulative IPC: 3.999 (Simulation time: 09 hr 42 min 35 sec)
Heartbeat CPU 7 instructions: 340000007 cycles: 85011259 heartbeat IPC: 4 cumulative IPC: 3.999 (Simulation time: 09 hr 42 min 35 sec)
Heartbeat CPU 15 instructions: 340000003 cycles: 85011340 heartbeat IPC: 4 cumulative IPC: 3.999 (Simulation time: 09 hr 42 min 35 sec)
Heartbeat CPU 2 instructions: 340000006 cycles: 85012866 heartbeat IPC: 4 cumulative IPC: 3.999 (Simulation time: 09 hr 42 min 35 sec)
Heartbeat CPU 10 instructions: 340000006 cycles: 85013049 heartbeat IPC: 4 cumulative IPC: 3.999 (Simulation time: 09 hr 42 min 35 sec)
Heartbeat CPU 1 instructions: 200000024 cycles: 86534416 heartbeat IPC: 2.444 cumulative IPC: 2.311 (Simulation time: 09 hr 52 min 04 sec)
Heartbeat CPU 9 instructions: 200000029 cycles: 86534423 heartbeat IPC: 2.444 cumulative IPC: 2.311 (Simulation time: 09 hr 52 min 04 sec)
Heartbeat CPU 4 instructions: 350000006 cycles: 87510914 heartbeat IPC: 4 cumulative IPC: 4 (Simulation time: 09 hr 58 min 53 sec)
Heartbeat CPU 13 instructions: 350000009 cycles: 87510998 heartbeat IPC: 4 cumulative IPC: 3.999 (Simulation time: 09 hr 58 min 53 sec)
Heartbeat CPU 11 instructions: 350000008 cycles: 87511000 heartbeat IPC: 4 cumulative IPC: 3.999 (Simulation time: 09 hr 58 min 53 sec)
Heartbeat CPU 3 instructions: 350000008 cycles: 87511001 heartbeat IPC: 4 cumulative IPC: 3.999 (Simulation time: 09 hr 58 min 53 sec)
Heartbeat CPU 5 instructions: 350000005 cycles: 87511029 heartbeat IPC: 4 cumulative IPC: 3.999 (Simulation time: 09 hr 58 min 53 sec)
Heartbeat CPU 12 instructions: 350000006 cycles: 87511103 heartbeat IPC: 4 cumulative IPC: 3.999 (Simulation time: 09 hr 58 min 53 sec)
Heartbeat CPU 14 instructions: 350000006 cycles: 87511232 heartbeat IPC: 4 cumulative IPC: 3.999 (Simulation time: 09 hr 58 min 53 sec)
Heartbeat CPU 6 instructions: 350000006 cycles: 87511236 heartbeat IPC: 4 cumulative IPC: 3.999 (Simulation time: 09 hr 58 min 53 sec)
Heartbeat CPU 7 instructions: 350000007 cycles: 87511259 heartbeat IPC: 4 cumulative IPC: 3.999 (Simulation time: 09 hr 58 min 53 sec)
Heartbeat CPU 15 instructions: 350000003 cycles: 87511340 heartbeat IPC: 4 cumulative IPC: 3.999 (Simulation time: 09 hr 58 min 53 sec)
Heartbeat CPU 2 instructions: 350000006 cycles: 87512866 heartbeat IPC: 4 cumulative IPC: 3.999 (Simulation time: 09 hr 58 min 54 sec)
Heartbeat CPU 10 instructions: 350000006 cycles: 87513049 heartbeat IPC: 4 cumulative IPC: 3.999 (Simulation time: 09 hr 58 min 54 sec)
Heartbeat CPU 4 instructions: 360000006 cycles: 90010914 heartbeat IPC: 4 cumulative IPC: 4 (Simulation time: 10 hr 16 min 13 sec)
Heartbeat CPU 13 instructions: 360000009 cycles: 90010998 heartbeat IPC: 4 cumulative IPC: 4 (Simulation time: 10 hr 16 min 13 sec)
Heartbeat CPU 11 instructions: 360000008 cycles: 90011000 heartbeat IPC: 4 cumulative IPC: 4 (Simulation time: 10 hr 16 min 13 sec)
Heartbeat CPU 3 instructions: 360000008 cycles: 90011001 heartbeat IPC: 4 cumulative IPC: 4 (Simulation time: 10 hr 16 min 13 sec)
Heartbeat CPU 5 instructions: 360000005 cycles: 90011029 heartbeat IPC: 4 cumulative IPC: 4 (Simulation time: 10 hr 16 min 13 sec)
Heartbeat CPU 12 instructions: 360000006 cycles: 90011103 heartbeat IPC: 4 cumulative IPC: 4 (Simulation time: 10 hr 16 min 13 sec)
[...]
cpu12->cpu12_STLB LOAD         ACCESS:        868 HIT:        868 MISS:          0 MSHR_MERGE:          0
cpu12->cpu12_STLB RFO          ACCESS:          0 HIT:          0 MISS:          0 MSHR_MERGE:          0
cpu12->cpu12_STLB PREFETCH     ACCESS:          0 HIT:          0 MISS:          0 MSHR_MERGE:          0
cpu12->cpu12_STLB WRITE        ACCESS:          0 HIT:          0 MISS:          0 MSHR_MERGE:          0
cpu12->cpu12_STLB TRANSLATION  ACCESS:          0 HIT:          0 MISS:          0 MSHR_MERGE:          0
cpu12->cpu12_STLB PREFETCH REQUESTED:          0 ISSUED:          0 USEFUL:          0 USELESS:          0
cpu12->cpu12_STLB AVERAGE MISS LATENCY: - cycles
cpu12_STLB COHERENCE INVALIDATIONS:          0
cpu12_STLB COHERENCE WRITE-HIT OTHER-SHARER EVENTS:          0
cpu12->cpu12_L2C TOTAL        ACCESS:      47501 HIT:      47501 MISS:          0 MSHR_MERGE:          0
cpu12->cpu12_L2C LOAD         ACCESS:      47501 HIT:      47501 MISS:          0 MSHR_MERGE:          0
cpu12->cpu12_L2C RFO          ACCESS:          0 HIT:          0 MISS:          0 MSHR_MERGE:          0
cpu12->cpu12_L2C PREFETCH     ACCESS:          0 HIT:          0 MISS:          0 MSHR_MERGE:          0
cpu12->cpu12_L2C WRITE        ACCESS:          0 HIT:          0 MISS:          0 MSHR_MERGE:          0
cpu12->cpu12_L2C TRANSLATION  ACCESS:          0 HIT:          0 MISS:          0 MSHR_MERGE:          0
cpu12->cpu12_L2C PREFETCH REQUESTED:          0 ISSUED:          0 USEFUL:          0 USELESS:          0
cpu12->cpu12_L2C AVERAGE MISS LATENCY: - cycles
cpu12_L2C COHERENCE INVALIDATIONS:          0
cpu12_L2C COHERENCE WRITE-HIT OTHER-SHARER EVENTS:          0
cpu12->cpu12_L1I TOTAL        ACCESS:  445060322 HIT:  444984469 MISS:      75853 MSHR_MERGE:      28352
cpu12->cpu12_L1I LOAD         ACCESS:  445060322 HIT:  444984469 MISS:      75853 MSHR_MERGE:      28352
cpu12->cpu12_L1I RFO          ACCESS:          0 HIT:          0 MISS:          0 MSHR_MERGE:          0
cpu12->cpu12_L1I PREFETCH     ACCESS:          0 HIT:          0 MISS:          0 MSHR_MERGE:          0
cpu12->cpu12_L1I WRITE        ACCESS:          0 HIT:          0 MISS:          0 MSHR_MERGE:          0
cpu12->cpu12_L1I TRANSLATION  ACCESS:          0 HIT:          0 MISS:          0 MSHR_MERGE:          0
cpu12->cpu12_L1I PREFETCH REQUESTED:          0 ISSUED:          0 USEFUL:          0 USELESS:          0
cpu12->cpu12_L1I AVERAGE MISS LATENCY: 7.2 cycles
cpu12_L1I COHERENCE INVALIDATIONS:          0
cpu12_L1I COHERENCE WRITE-HIT OTHER-SHARER EVENTS:          0
cpu12_L1D COHERENCE INVALIDATIONS:          0
cpu12_L1D COHERENCE WRITE-HIT OTHER-SHARER EVENTS:          0
cpu12->cpu12_ITLB TOTAL        ACCESS:  351848378 HIT:  351846580 MISS:       1798 MSHR_MERGE:        930
cpu12->cpu12_ITLB LOAD         ACCESS:  351848378 HIT:  351846580 MISS:       1798 MSHR_MERGE:        930
cpu12->cpu12_ITLB RFO          ACCESS:          0 HIT:          0 MISS:          0 MSHR_MERGE:          0
cpu12->cpu12_ITLB PREFETCH     ACCESS:          0 HIT:          0 MISS:          0 MSHR_MERGE:          0
cpu12->cpu12_ITLB WRITE        ACCESS:          0 HIT:          0 MISS:          0 MSHR_MERGE:          0
cpu12->cpu12_ITLB TRANSLATION  ACCESS:          0 HIT:          0 MISS:          0 MSHR_MERGE:          0
cpu12->cpu12_ITLB PREFETCH REQUESTED:          0 ISSUED:          0 USEFUL:          0 USELESS:          0
cpu12->cpu12_ITLB AVERAGE MISS LATENCY: 4 cycles
cpu12_ITLB COHERENCE INVALIDATIONS:          0
cpu12_ITLB COHERENCE WRITE-HIT OTHER-SHARER EVENTS:          0
cpu12_DTLB COHERENCE INVALIDATIONS:          0
cpu12_DTLB COHERENCE WRITE-HIT OTHER-SHARER EVENTS:          0
cpu11->cpu11_STLB TOTAL        ACCESS:        992 HIT:        992 MISS:          0 MSHR_MERGE:          0
cpu11->cpu11_STLB LOAD         ACCESS:        992 HIT:        992 MISS:          0 MSHR_MERGE:          0
cpu11->cpu11_STLB RFO          ACCESS:          0 HIT:          0 MISS:          0 MSHR_MERGE:          0
cpu11->cpu11_STLB PREFETCH     ACCESS:          0 HIT:          0 MISS:          0 MSHR_MERGE:          0
cpu11->cpu11_STLB WRITE        ACCESS:          0 HIT:          0 MISS:          0 MSHR_MERGE:          0
cpu11->cpu11_STLB TRANSLATION  ACCESS:          0 HIT:          0 MISS:          0 MSHR_MERGE:          0
cpu11->cpu11_STLB PREFETCH REQUESTED:          0 ISSUED:          0 USEFUL:          0 USELESS:          0
cpu11->cpu11_STLB AVERAGE MISS LATENCY: - cycles
cpu11_STLB COHERENCE INVALIDATIONS:          0
cpu11_STLB COHERENCE WRITE-HIT OTHER-SHARER EVENTS:          0
cpu11->cpu11_L2C TOTAL        ACCESS:      97460 HIT:      97460 MISS:          0 MSHR_MERGE:          0
cpu11->cpu11_L2C LOAD         ACCESS:      97460 HIT:      97460 MISS:          0 MSHR_MERGE:          0
cpu11->cpu11_L2C RFO          ACCESS:          0 HIT:          0 MISS:          0 MSHR_MERGE:          0
cpu11->cpu11_L2C PREFETCH     ACCESS:          0 HIT:          0 MISS:          0 MSHR_MERGE:          0
cpu11->cpu11_L2C WRITE        ACCESS:          0 HIT:          0 MISS:          0 MSHR_MERGE:          0
cpu11->cpu11_L2C TRANSLATION  ACCESS:          0 HIT:          0 MISS:          0 MSHR_MERGE:          0
cpu11->cpu11_L2C PREFETCH REQUESTED:          0 ISSUED:          0 USEFUL:          0 USELESS:          0
cpu11->cpu11_L2C AVERAGE MISS LATENCY: - cycles
cpu11_L2C COHERENCE INVALIDATIONS:          0
cpu11_L2C COHERENCE WRITE-HIT OTHER-SHARER EVENTS:          0
cpu11->cpu11_L1I TOTAL        ACCESS:  444406662 HIT:  444260504 MISS:     146158 MSHR_MERGE:      48698
cpu11->cpu11_L1I LOAD         ACCESS:  444406662 HIT:  444260504 MISS:     146158 MSHR_MERGE:      48698
cpu11->cpu11_L1I RFO          ACCESS:          0 HIT:          0 MISS:          0 MSHR_MERGE:          0
cpu11->cpu11_L1I PREFETCH     ACCESS:          0 HIT:          0 MISS:          0 MSHR_MERGE:          0
cpu11->cpu11_L1I WRITE        ACCESS:          0 HIT:          0 MISS:          0 MSHR_MERGE:          0
cpu11->cpu11_L1I TRANSLATION  ACCESS:          0 HIT:          0 MISS:          0 MSHR_MERGE:          0
cpu11->cpu11_L1I PREFETCH REQUESTED:          0 ISSUED:          0 USEFUL:          0 USELESS:          0
cpu11->cpu11_L1I AVERAGE MISS LATENCY: 7 cycles
cpu11_L1I COHERENCE INVALIDATIONS:          0
cpu11_L1I COHERENCE WRITE-HIT OTHER-SHARER EVENTS:          0
cpu11_L1D COHERENCE INVALIDATIONS:          0
cpu11_L1D COHERENCE WRITE-HIT OTHER-SHARER EVENTS:          0
cpu11->cpu11_ITLB TOTAL        ACCESS:  351934940 HIT:  351933080 MISS:       1860 MSHR_MERGE:        868
cpu11->cpu11_ITLB LOAD         ACCESS:  351934940 HIT:  351933080 MISS:       1860 MSHR_MERGE:        868
cpu11->cpu11_ITLB RFO          ACCESS:          0 HIT:          0 MISS:          0 MSHR_MERGE:          0
cpu11->cpu11_ITLB PREFETCH     ACCESS:          0 HIT:          0 MISS:          0 MSHR_MERGE:          0
cpu11->cpu11_ITLB WRITE        ACCESS:          0 HIT:          0 MISS:          0 MSHR_MERGE:          0
cpu11->cpu11_ITLB TRANSLATION  ACCESS:          0 HIT:          0 MISS:          0 MSHR_MERGE:          0
cpu11->cpu11_ITLB PREFETCH REQUESTED:          0 ISSUED:          0 USEFUL:          0 USELESS:          0
cpu11->cpu11_ITLB AVERAGE MISS LATENCY: 4 cycles
cpu11_ITLB COHERENCE INVALIDATIONS:          0
cpu11_ITLB COHERENCE WRITE-HIT OTHER-SHARER EVENTS:          0
cpu11_DTLB COHERENCE INVALIDATIONS:          0
cpu11_DTLB COHERENCE WRITE-HIT OTHER-SHARER EVENTS:          0
cpu10->cpu10_STLB TOTAL        ACCESS:       1004 HIT:       1004 MISS:          0 MSHR_MERGE:          0
cpu10->cpu10_STLB LOAD         ACCESS:       1004 HIT:       1004 MISS:          0 MSHR_MERGE:          0
cpu10->cpu10_STLB RFO          ACCESS:          0 HIT:          0 MISS:          0 MSHR_MERGE:          0
cpu10->cpu10_STLB PREFETCH     ACCESS:          0 HIT:          0 MISS:          0 MSHR_MERGE:          0
cpu10->cpu10_STLB WRITE        ACCESS:          0 HIT:          0 MISS:          0 MSHR_MERGE:          0
cpu10->cpu10_STLB TRANSLATION  ACCESS:          0 HIT:          0 MISS:          0 MSHR_MERGE:          0
cpu10->cpu10_STLB PREFETCH REQUESTED:          0 ISSUED:          0 USEFUL:          0 USELESS:          0
cpu10->cpu10_STLB AVERAGE MISS LATENCY: - cycles
cpu10_STLB COHERENCE INVALIDATIONS:          0
cpu10_STLB COHERENCE WRITE-HIT OTHER-SHARER EVENTS:          0
cpu10->cpu10_L2C TOTAL        ACCESS:     103692 HIT:     103692 MISS:          0 MSHR_MERGE:          0
cpu10->cpu10_L2C LOAD         ACCESS:     103692 HIT:     103692 MISS:          0 MSHR_MERGE:          0
cpu10->cpu10_L2C RFO          ACCESS:          0 HIT:          0 MISS:          0 MSHR_MERGE:          0
cpu10->cpu10_L2C PREFETCH     ACCESS:          0 HIT:          0 MISS:          0 MSHR_MERGE:          0
cpu10->cpu10_L2C WRITE        ACCESS:          0 HIT:          0 MISS:          0 MSHR_MERGE:          0
cpu10->cpu10_L2C TRANSLATION  ACCESS:          0 HIT:          0 MISS:          0 MSHR_MERGE:          0
cpu10->cpu10_L2C PREFETCH REQUESTED:          0 ISSUED:          0 USEFUL:          0 USELESS:          0
cpu10->cpu10_L2C AVERAGE MISS LATENCY: - cycles
cpu10_L2C COHERENCE INVALIDATIONS:          0
cpu10_L2C COHERENCE WRITE-HIT OTHER-SHARER EVENTS:          0
cpu10->cpu10_L1I TOTAL        ACCESS:  445259578 HIT:  445102676 MISS:     156902 MSHR_MERGE:      53210
cpu10->cpu10_L1I LOAD         ACCESS:  445259578 HIT:  445102676 MISS:     156902 MSHR_MERGE:      53210
cpu10->cpu10_L1I RFO          ACCESS:          0 HIT:          0 MISS:          0 MSHR_MERGE:          0
cpu10->cpu10_L1I PREFETCH     ACCESS:          0 HIT:          0 MISS:          0 MSHR_MERGE:          0
cpu10->cpu10_L1I WRITE        ACCESS:          0 HIT:          0 MISS:          0 MSHR_MERGE:          0
cpu10->cpu10_L1I TRANSLATION  ACCESS:          0 HIT:          0 MISS:          0 MSHR_MERGE:          0
cpu10->cpu10_L1I PREFETCH REQUESTED:          0 ISSUED:          0 USEFUL:          0 USELESS:          0
cpu10->cpu10_L1I AVERAGE MISS LATENCY: 7 cycles
cpu10_L1I COHERENCE INVALIDATIONS:          0
cpu10_L1I COHERENCE WRITE-HIT OTHER-SHARER EVENTS:          0
cpu10_L1D COHERENCE INVALIDATIONS:          0
cpu10_L1D COHERENCE WRITE-HIT OTHER-SHARER EVENTS:          0
cpu10->cpu10_ITLB TOTAL        ACCESS:  351805424 HIT:  351803604 MISS:       1820 MSHR_MERGE:        816
cpu10->cpu10_ITLB LOAD         ACCESS:  351805424 HIT:  351803604 MISS:       1820 MSHR_MERGE:        816
cpu10->cpu10_ITLB RFO          ACCESS:          0 HIT:          0 MISS:          0 MSHR_MERGE:          0
cpu10->cpu10_ITLB PREFETCH     ACCESS:          0 HIT:          0 MISS:          0 MSHR_MERGE:          0
cpu10->cpu10_ITLB WRITE        ACCESS:          0 HIT:          0 MISS:          0 MSHR_MERGE:          0
cpu10->cpu10_ITLB TRANSLATION  ACCESS:          0 HIT:          0 MISS:          0 MSHR_MERGE:          0
cpu10->cpu10_ITLB PREFETCH REQUESTED:          0 ISSUED:          0 USEFUL:          0 USELESS:          0
cpu10->cpu10_ITLB AVERAGE MISS LATENCY: 4 cycles
cpu10_ITLB COHERENCE INVALIDATIONS:          0
cpu10_ITLB COHERENCE WRITE-HIT OTHER-SHARER EVENTS:          0
cpu10_DTLB COHERENCE INVALIDATIONS:          0
cpu10_DTLB COHERENCE WRITE-HIT OTHER-SHARER EVENTS:          0
cpu0->cpu0_STLB TOTAL        ACCESS:    4695388 HIT:    4547680 MISS:     147708 MSHR_MERGE:          0
cpu0->cpu0_STLB LOAD         ACCESS:    4695388 HIT:    4547680 MISS:     147708 MSHR_MERGE:          0
cpu0->cpu0_STLB RFO          ACCESS:          0 HIT:          0 MISS:          0 MSHR_MERGE:          0
cpu0->cpu0_STLB PREFETCH     ACCESS:          0 HIT:          0 MISS:          0 MSHR_MERGE:          0
cpu0->cpu0_STLB WRITE        ACCESS:          0 HIT:          0 MISS:          0 MSHR_MERGE:          0
cpu0->cpu0_STLB TRANSLATION  ACCESS:          0 HIT:          0 MISS:          0 MSHR_MERGE:          0
cpu0->cpu0_STLB PREFETCH REQUESTED:          0 ISSUED:          0 USEFUL:          0 USELESS:          0
cpu0->cpu0_STLB AVERAGE MISS LATENCY: 767.7 cycles
cpu0_STLB COHERENCE INVALIDATIONS:          0
cpu0_STLB COHERENCE WRITE-HIT OTHER-SHARER EVENTS:          0
cpu0->cpu0_L2C TOTAL        ACCESS:   32543496 HIT:   14787545 MISS:   17755951 MSHR_MERGE:          0
cpu0->cpu0_L2C LOAD         ACCESS:   21252239 HIT:    6673919 MISS:   14578320 MSHR_MERGE:          0
cpu0->cpu0_L2C RFO          ACCESS:    3438072 HIT:     493723 MISS:    2944349 MSHR_MERGE:          0
cpu0->cpu0_L2C PREFETCH     ACCESS:          0 HIT:          0 MISS:          0 MSHR_MERGE:          0
cpu0->cpu0_L2C WRITE        ACCESS:    7580762 HIT:    7580082 MISS:        680 MSHR_MERGE:          0
cpu0->cpu0_L2C TRANSLATION  ACCESS:     272423 HIT:      39821 MISS:     232602 MSHR_MERGE:          0
cpu0->cpu0_L2C PREFETCH REQUESTED:          0 ISSUED:          0 USEFUL:          0 USELESS:          0
cpu0->cpu0_L2C AVERAGE MISS LATENCY: 240.6 cycles
cpu0_L2C COHERENCE INVALIDATIONS:          0
cpu0_L2C COHERENCE WRITE-HIT OTHER-SHARER EVENTS:          0
cpu0->cpu0_L1I TOTAL        ACCESS:   31137778 HIT:   31125875 MISS:      11903 MSHR_MERGE:       5675
cpu0->cpu0_L1I LOAD         ACCESS:   31137778 HIT:   31125875 MISS:      11903 MSHR_MERGE:       5675
cpu0->cpu0_L1I RFO          ACCESS:          0 HIT:          0 MISS:          0 MSHR_MERGE:          0
cpu0->cpu0_L1I PREFETCH     ACCESS:          0 HIT:          0 MISS:          0 MSHR_MERGE:          0
cpu0->cpu0_L1I WRITE        ACCESS:          0 HIT:          0 MISS:          0 MSHR_MERGE:          0
cpu0->cpu0_L1I TRANSLATION  ACCESS:          0 HIT:          0 MISS:          0 MSHR_MERGE:          0
cpu0->cpu0_L1I PREFETCH REQUESTED:          0 ISSUED:          0 USEFUL:          0 USELESS:          0
cpu0->cpu0_L1I AVERAGE MISS LATENCY: 302.5 cycles
cpu0_L1I COHERENCE INVALIDATIONS:          0
cpu0_L1I COHERENCE WRITE-HIT OTHER-SHARER EVENTS:          0
cpu0->cpu0_L1D TOTAL        ACCESS:  103199608 HIT:   74497589 MISS:   28702019 MSHR_MERGE:    3744000
cpu0->cpu0_L1D LOAD         ACCESS:   44914385 HIT:   22610352 MISS:   22304033 MSHR_MERGE:    1057736
cpu0->cpu0_L1D RFO          ACCESS:          0 HIT:          0 MISS:          0 MSHR_MERGE:          0
cpu0->cpu0_L1D PREFETCH     ACCESS:          0 HIT:          0 MISS:          0 MSHR_MERGE:          0
cpu0->cpu0_L1D WRITE        ACCESS:   57984631 HIT:   51865281 MISS:    6119350 MSHR_MERGE:    2680051
cpu0->cpu0_L1D TRANSLATION  ACCESS:     300592 HIT:      21956 MISS:     278636 MSHR_MERGE:       6213
cpu0->cpu0_L1D PREFETCH REQUESTED:          0 ISSUED:          0 USEFUL:          0 USELESS:          0
cpu0->cpu0_L1D AVERAGE MISS LATENCY: 178.8 cycles
cpu0_L1D COHERENCE INVALIDATIONS:          0
cpu0_L1D COHERENCE WRITE-HIT OTHER-SHARER EVENTS:          0
cpu0->cpu0_ITLB TOTAL        ACCESS:   29947058 HIT:   29946016 MISS:       1042 MSHR_MERGE:        693
cpu0->cpu0_ITLB LOAD         ACCESS:   29947058 HIT:   29946016 MISS:       1042 MSHR_MERGE:        693
cpu0->cpu0_ITLB RFO          ACCESS:          0 HIT:          0 MISS:          0 MSHR_MERGE:          0
cpu0->cpu0_ITLB PREFETCH     ACCESS:          0 HIT:          0 MISS:          0 MSHR_MERGE:          0
cpu0->cpu0_ITLB WRITE        ACCESS:          0 HIT:          0 MISS:          0 MSHR_MERGE:          0
cpu0->cpu0_ITLB TRANSLATION  ACCESS:          0 HIT:          0 MISS:          0 MSHR_MERGE:          0
cpu0->cpu0_ITLB PREFETCH REQUESTED:          0 ISSUED:          0 USEFUL:          0 USELESS:          0
cpu0->cpu0_ITLB AVERAGE MISS LATENCY: 587.7 cycles
cpu0_ITLB COHERENCE INVALIDATIONS:          0
cpu0_ITLB COHERENCE WRITE-HIT OTHER-SHARER EVENTS:          0
cpu0->cpu0_DTLB TOTAL        ACCESS:   99632694 HIT:   94733333 MISS:    4899361 MSHR_MERGE:     204322
cpu0->cpu0_DTLB LOAD         ACCESS:   99632694 HIT:   94733333 MISS:    4899361 MSHR_MERGE:     204322
cpu0->cpu0_DTLB RFO          ACCESS:          0 HIT:          0 MISS:          0 MSHR_MERGE:          0
cpu0->cpu0_DTLB PREFETCH     ACCESS:          0 HIT:          0 MISS:          0 MSHR_MERGE:          0
cpu0->cpu0_DTLB WRITE        ACCESS:          0 HIT:          0 MISS:          0 MSHR_MERGE:          0
cpu0->cpu0_DTLB TRANSLATION  ACCESS:          0 HIT:          0 MISS:          0 MSHR_MERGE:          0
cpu0->cpu0_DTLB PREFETCH REQUESTED:          0 ISSUED:          0 USEFUL:          0 USELESS:          0
cpu0->cpu0_DTLB AVERAGE MISS LATENCY: 28.14 cycles
cpu0_DTLB COHERENCE INVALIDATIONS:          0
cpu0_DTLB COHERENCE WRITE-HIT OTHER-SHARER EVENTS:          0
cpu0->LLC TOTAL        ACCESS:   24213346 HIT:    9193294 MISS:   15020052 MSHR_MERGE:    5786102
cpu0->LLC LOAD         ACCESS:   14578293 HIT:    5800774 MISS:    8777519 MSHR_MERGE:    4565468
cpu0->LLC RFO          ACCESS:    2944346 HIT:     638342 MISS:    2306004 MSHR_MERGE:    1220634
cpu0->LLC PREFETCH     ACCESS:          0 HIT:          0 MISS:          0 MSHR_MERGE:          0
cpu0->LLC WRITE        ACCESS:    6458105 HIT:    2752871 MISS:    3705234 MSHR_MERGE:          0
cpu0->LLC TRANSLATION  ACCESS:     232602 HIT:       1307 MISS:     231295 MSHR_MERGE:          0
cpu0->LLC PREFETCH REQUESTED:          0 ISSUED:          0 USEFUL:          0 USELESS:          0
cpu0->LLC AVERAGE MISS LATENCY: 623.3 cycles
cpu1->LLC TOTAL        ACCESS:    7571137 HIT:    2281517 MISS:    5289620 MSHR_MERGE:    2504507
cpu1->LLC LOAD         ACCESS:    7524094 HIT:    2281385 MISS:    5242709 MSHR_MERGE:    2504507
cpu1->LLC RFO          ACCESS:          0 HIT:          0 MISS:          0 MSHR_MERGE:          0
cpu1->LLC PREFETCH     ACCESS:          0 HIT:          0 MISS:          0 MSHR_MERGE:          0
cpu1->LLC WRITE        ACCESS:          0 HIT:          0 MISS:          0 MSHR_MERGE:          0
cpu1->LLC TRANSLATION  ACCESS:      47043 HIT:        132 MISS:      46911 MSHR_MERGE:          0
cpu1->LLC PREFETCH REQUESTED:          0 ISSUED:          0 USEFUL:          0 USELESS:          0
cpu1->LLC AVERAGE MISS LATENCY: 2385 cycles
cpu8->LLC TOTAL        ACCESS:   24205151 HIT:    9244942 MISS:   14960209 MSHR_MERGE:    5204581
cpu8->LLC LOAD         ACCESS:   14571317 HIT:    5796980 MISS:    8774337 MSHR_MERGE:    4141559
cpu8->LLC RFO          ACCESS:    2945667 HIT:     640531 MISS:    2305136 MSHR_MERGE:    1063022
cpu8->LLC PREFETCH     ACCESS:          0 HIT:          0 MISS:          0 MSHR_MERGE:          0
cpu8->LLC WRITE        ACCESS:    6455363 HIT:    2806010 MISS:    3649353 MSHR_MERGE:          0
cpu8->LLC TRANSLATION  ACCESS:     232804 HIT:       1421 MISS:     231383 MSHR_MERGE:          0
cpu8->LLC PREFETCH REQUESTED:          0 ISSUED:          0 USEFUL:          0 USELESS:          0
cpu8->LLC AVERAGE MISS LATENCY: 666.9 cycles
cpu9->LLC TOTAL        ACCESS:    7571068 HIT:    2281923 MISS:    5289145 MSHR_MERGE:    2724250
cpu9->LLC LOAD         ACCESS:    7524028 HIT:    2281825 MISS:    5242203 MSHR_MERGE:    2724250
cpu9->LLC RFO          ACCESS:          0 HIT:          0 MISS:          0 MSHR_MERGE:          0
cpu9->LLC PREFETCH     ACCESS:          0 HIT:          0 MISS:          0 MSHR_MERGE:          0
cpu9->LLC WRITE        ACCESS:          0 HIT:          0 MISS:          0 MSHR_MERGE:          0
cpu9->LLC TRANSLATION  ACCESS:      47040 HIT:         98 MISS:      46942 MSHR_MERGE:          0
cpu9->LLC PREFETCH REQUESTED:          0 ISSUED:          0 USEFUL:          0 USELESS:          0
cpu9->LLC AVERAGE MISS LATENCY: 2197 cycles
LLC COHERENCE INVALIDATIONS:    6675045
LLC COHERENCE WRITE-HIT OTHER-SHARER EVENTS:    5494473

DRAM Statistics

Channel 0 RQ ROW_BUFFER_HIT:     590137
  ROW_BUFFER_MISS:   16366401
  AVG DBUS CONGESTED CYCLE: 7.322
Channel 0 WQ ROW_BUFFER_HIT:     882121
  ROW_BUFFER_MISS:    6502339
  FULL:      11754
Channel 0 REFRESHES ISSUED:      59032

VMEM ALIASED FILLS (cross-CPU shared-page hits): 383420
