[VMEM] WARNING: physical memory size is smaller than virtual memory size.

*** ChampSim Multicore Out-of-Order Simulator ***
Warmup Instructions: 50000000
Simulation Instructions: 100000000
Number of CPUs: 16
Page size: 4096

Off-chip DRAM Size: 16 GiB Channels: 1 Width: 64-bit Data Rate: 3205 MT/s
Heartbeat CPU 4 instructions: 10000001 cycles: 2508565 heartbeat IPC: 3.986 cumulative IPC: 3.986 (Simulation time: 00 hr 17 min 47 sec)
Heartbeat CPU 13 instructions: 10000003 cycles: 2508660 heartbeat IPC: 3.986 cumulative IPC: 3.986 (Simulation time: 00 hr 17 min 47 sec)
Heartbeat CPU 5 instructions: 10000003 cycles: 2508682 heartbeat IPC: 3.986 cumulative IPC: 3.986 (Simulation time: 00 hr 17 min 47 sec)
Heartbeat CPU 12 instructions: 10000001 cycles: 2508754 heartbeat IPC: 3.986 cumulative IPC: 3.986 (Simulation time: 00 hr 17 min 47 sec)
Heartbeat CPU 11 instructions: 10000003 cycles: 2508780 heartbeat IPC: 3.986 cumulative IPC: 3.986 (Simulation time: 00 hr 17 min 47 sec)
Heartbeat CPU 3 instructions: 10000003 cycles: 2508781 heartbeat IPC: 3.986 cumulative IPC: 3.986 (Simulation time: 00 hr 17 min 47 sec)
Heartbeat CPU 6 instructions: 10000002 cycles: 2509008 heartbeat IPC: 3.986 cumulative IPC: 3.986 (Simulation time: 00 hr 17 min 47 sec)
Heartbeat CPU 14 instructions: 10000002 cycles: 2509009 heartbeat IPC: 3.986 cumulative IPC: 3.986 (Simulation time: 00 hr 17 min 47 sec)
Heartbeat CPU 7 instructions: 10000002 cycles: 2509057 heartbeat IPC: 3.986 cumulative IPC: 3.986 (Simulation time: 00 hr 17 min 47 sec)
Heartbeat CPU 15 instructions: 10000003 cycles: 2509122 heartbeat IPC: 3.985 cumulative IPC: 3.985 (Simulation time: 00 hr 17 min 47 sec)
Heartbeat CPU 2 instructions: 10000003 cycles: 2509620 heartbeat IPC: 3.985 cumulative IPC: 3.985 (Simulation time: 00 hr 17 min 47 sec)
Heartbeat CPU 10 instructions: 10000003 cycles: 2509812 heartbeat IPC: 3.984 cumulative IPC: 3.984 (Simulation time: 00 hr 17 min 47 sec)
Heartbeat CPU 1 instructions: 10000001 cycles: 4557900 heartbeat IPC: 2.194 cumulative IPC: 2.194 (Simulation time: 00 hr 31 min 23 sec)
Heartbeat CPU 9 instructions: 10000001 cycles: 4558050 heartbeat IPC: 2.194 cumulative IPC: 2.194 (Simulation time: 00 hr 31 min 23 sec)
Heartbeat CPU 4 instructions: 20000004 cycles: 5008910 heartbeat IPC: 3.999 cumulative IPC: 3.993 (Simulation time: 00 hr 34 min 16 sec)
Heartbeat CPU 11 instructions: 20000006 cycles: 5008994 heartbeat IPC: 4 cumulative IPC: 3.993 (Simulation time: 00 hr 34 min 16 sec)
Heartbeat CPU 13 instructions: 20000006 cycles: 5008995 heartbeat IPC: 3.999 cumulative IPC: 3.993 (Simulation time: 00 hr 34 min 16 sec)
Heartbeat CPU 3 instructions: 20000006 cycles: 5008995 heartbeat IPC: 4 cumulative IPC: 3.993 (Simulation time: 00 hr 34 min 16 sec)
Heartbeat CPU 5 instructions: 20000005 cycles: 5009022 heartbeat IPC: 3.999 cumulative IPC: 3.993 (Simulation time: 00 hr 34 min 16 sec)
Heartbeat CPU 12 instructions: 20000004 cycles: 5009099 heartbeat IPC: 3.999 cumulative IPC: 3.993 (Simulation time: 00 hr 34 min 16 sec)
Heartbeat CPU 6 instructions: 20000005 cycles: 5009228 heartbeat IPC: 4 cumulative IPC: 3.993 (Simulation time: 00 hr 34 min 17 sec)
Heartbeat CPU 14 instructions: 20000005 cycles: 5009230 heartbeat IPC: 4 cumulative IPC: 3.993 (Simulation time: 00 hr 34 min 17 sec)
Heartbeat CPU 7 instructions: 20000003 cycles: 5009272 heartbeat IPC: 4 cumulative IPC: 3.993 (Simulation time: 00 hr 34 min 17 sec)
Heartbeat CPU 15 instructions: 20000003 cycles: 5009340 heartbeat IPC: 4 cumulative IPC: 3.993 (Simulation time: 00 hr 34 min 17 sec)
Heartbeat CPU 2 instructions: 20000003 cycles: 5010460 heartbeat IPC: 3.999 cumulative IPC: 3.992 (Simulation time: 00 hr 34 min 17 sec)
Heartbeat CPU 10 instructions: 20000003 cycles: 5010646 heartbeat IPC: 3.999 cumulative IPC: 3.992 (Simulation time: 00 hr 34 min 17 sec)
Heartbeat CPU 4 instructions: 30000004 cycles: 7508910 heartbeat IPC: 4 cumulative IPC: 3.995 (Simulation time: 00 hr 51 min 41 sec)
Heartbeat CPU 11 instructions: 30000006 cycles: 7508994 heartbeat IPC: 4 cumulative IPC: 3.995 (Simulation time: 00 hr 51 min 41 sec)
Heartbeat CPU 13 instructions: 30000006 cycles: 7508995 heartbeat IPC: 4 cumulative IPC: 3.995 (Simulation time: 00 hr 51 min 41 sec)
Heartbeat CPU 3 instructions: 30000006 cycles: 7508995 heartbeat IPC: 4 cumulative IPC: 3.995 (Simulation time: 00 hr 51 min 41 sec)
Heartbeat CPU 5 instructions: 30000005 cycles: 7509022 heartbeat IPC: 4 cumulative IPC: 3.995 (Simulation time: 00 hr 51 min 41 sec)
Heartbeat CPU 12 instructions: 30000004 cycles: 7509099 heartbeat IPC: 4 cumulative IPC: 3.995 (Simulation time: 00 hr 51 min 41 sec)
Heartbeat CPU 6 instructions: 30000005 cycles: 7509228 heartbeat IPC: 4 cumulative IPC: 3.995 (Simulation time: 00 hr 51 min 41 sec)
Heartbeat CPU 14 instructions: 30000005 cycles: 7509230 heartbeat IPC: 4 cumulative IPC: 3.995 (Simulation time: 00 hr 51 min 41 sec)
Heartbeat CPU 7 instructions: 30000003 cycles: 7509272 heartbeat IPC: 4 cumulative IPC: 3.995 (Simulation time: 00 hr 51 min 41 sec)
Heartbeat CPU 15 instructions: 30000003 cycles: 7509340 heartbeat IPC: 4 cumulative IPC: 3.995 (Simulation time: 00 hr 51 min 41 sec)
Heartbeat CPU 2 instructions: 30000003 cycles: 7510460 heartbeat IPC: 4 cumulative IPC: 3.994 (Simulation time: 00 hr 51 min 42 sec)
Heartbeat CPU 10 instructions: 30000003 cycles: 7510646 heartbeat IPC: 4 cumulative IPC: 3.994 (Simulation time: 00 hr 51 min 42 sec)
Heartbeat CPU 9 instructions: 20000004 cycles: 8995774 heartbeat IPC: 2.253 cumulative IPC: 2.223 (Simulation time: 01 hr 01 min 39 sec)
Heartbeat CPU 1 instructions: 20000003 cycles: 8995781 heartbeat IPC: 2.253 cumulative IPC: 2.223 (Simulation time: 01 hr 01 min 39 sec)
Heartbeat CPU 4 instructions: 40000004 cycles: 10008910 heartbeat IPC: 4 cumulative IPC: 3.996 (Simulation time: 01 hr 09 min 00 sec)
Heartbeat CPU 11 instructions: 40000006 cycles: 10008994 heartbeat IPC: 4 cumulative IPC: 3.996 (Simulation time: 01 hr 09 min 00 sec)
Heartbeat CPU 13 instructions: 40000006 cycles: 10008995 heartbeat IPC: 4 cumulative IPC: 3.996 (Simulation time: 01 hr 09 min 00 sec)
Heartbeat CPU 3 instructions: 40000006 cycles: 10008995 heartbeat IPC: 4 cumulative IPC: 3.996 (Simulation time: 01 hr 09 min 00 sec)
Heartbeat CPU 5 instructions: 40000005 cycles: 10009022 heartbeat IPC: 4 cumulative IPC: 3.996 (Simulation time: 01 hr 09 min 00 sec)
Heartbeat CPU 12 instructions: 40000004 cycles: 10009099 heartbeat IPC: 4 cumulative IPC: 3.996 (Simulation time: 01 hr 09 min 00 sec)
Heartbeat CPU 6 instructions: 40000005 cycles: 10009228 heartbeat IPC: 4 cumulative IPC: 3.996 (Simulation time: 01 hr 09 min 00 sec)
Heartbeat CPU 14 instructions: 40000005 cycles: 10009230 heartbeat IPC: 4 cumulative IPC: 3.996 (Simulation time: 01 hr 09 min 00 sec)
Heartbeat CPU 7 instructions: 40000003 cycles: 10009272 heartbeat IPC: 4 cumulative IPC: 3.996 (Simulation time: 01 hr 09 min 00 sec)
Heartbeat CPU 15 instructions: 40000003 cycles: 10009340 heartbeat IPC: 4 cumulative IPC: 3.996 (Simulation time: 01 hr 09 min 00 sec)
Heartbeat CPU 2 instructions: 40000003 cycles: 10010460 heartbeat IPC: 4 cumulative IPC: 3.996 (Simulation time: 01 hr 09 min 01 sec)
Heartbeat CPU 10 instructions: 40000003 cycles: 10010646 heartbeat IPC: 4 cumulative IPC: 3.996 (Simulation time: 01 hr 09 min 01 sec)
*** Reached end of trace: (2, "/home/harshraj/COALESCE-Hashed-Perceptron-Cache-Replacement-Policy/simulator/traces/ocean_8t/ocean2.champsimtrace")
*** Reached end of trace: (10, "/home/harshraj/COALESCE-Hashed-Perceptron-Cache-Replacement-Policy/simulator/traces/ocean_8t/ocean2.champsimtrace")
*** Reached end of trace: (13, "/home/harshraj/COALESCE-Hashed-Perceptron-Cache-Replacement-Policy/simulator/traces/ocean_8t/ocean5.champsimtrace")
*** Reached end of trace: (5, "/home/harshraj/COALESCE-Hashed-Perceptron-Cache-Replacement-Policy/simulator/traces/ocean_8t/ocean5.champsimtrace")
*** Reached end of trace: (4, "/home/harshraj/COALESCE-Hashed-Perceptron-Cache-Replacement-Policy/simulator/traces/ocean_8t/ocean4.champsimtrace")
*** Reached end of trace: (12, "/home/harshraj/COALESCE-Hashed-Perceptron-Cache-Replacement-Policy/simulator/traces/ocean_8t/ocean4.champsimtrace")
*** Reached end of trace: (6, "/home/harshraj/COALESCE-Hashed-Perceptron-Cache-Replacement-Policy/simulator/traces/ocean_8t/ocean6.champsimtrace")
*** Reached end of trace: (14, "/home/harshraj/COALESCE-Hashed-Perceptron-Cache-Replacement-Policy/simulator/traces/ocean_8t/ocean6.champsimtrace")
*** Reached end of trace: (11, "/home/harshraj/COALESCE-Hashed-Perceptron-Cache-Replacement-Policy/simulator/traces/ocean_8t/ocean3.champsimtrace")
*** Reached end of trace: (3, "/home/harshraj/COALESCE-Hashed-Perceptron-Cache-Replacement-Policy/simulator/traces/ocean_8t/ocean3.champsimtrace")
*** Reached end of trace: (7, "/home/harshraj/COALESCE-Hashed-Perceptron-Cache-Replacement-Policy/simulator/traces/ocean_8t/ocean7.champsimtrace")
*** Reached end of trace: (15, "/home/harshraj/COALESCE-Hashed-Perceptron-Cache-Replacement-Policy/simulator/traces/ocean_8t/ocean7.champsimtrace")
Warmup finished CPU 4 instructions: 50000002 cycles: 12510913 cumulative IPC: 3.997 (Simulation time: 01 hr 26 min 36 sec)
Heartbeat CPU 4 instructions: 50000006 cycles: 12510914 heartbeat IPC: 3.997 cumulative IPC: 3.997 (Simulation time: 01 hr 26 min 36 sec)
Warmup finished CPU 11 instructions: 50000000 cycles: 12510993 cumulative IPC: 3.996 (Simulation time: 01 hr 26 min 36 sec)
Warmup finished CPU 3 instructions: 50000000 cycles: 12510994 cumulative IPC: 3.996 (Simulation time: 01 hr 26 min 36 sec)
Heartbeat CPU 11 instructions: 50000008 cycles: 12510995 heartbeat IPC: 3.997 cumulative IPC: 3.996 (Simulation time: 01 hr 26 min 36 sec)
Heartbeat CPU 3 instructions: 50000008 cycles: 12510996 heartbeat IPC: 3.997 cumulative IPC: 3.996 (Simulation time: 01 hr 26 min 36 sec)
Warmup finished CPU 13 instructions: 50000001 cycles: 12510996 cumulative IPC: 3.996 (Simulation time: 01 hr 26 min 36 sec)
Heartbeat CPU 13 instructions: 50000009 cycles: 12510998 heartbeat IPC: 3.997 cumulative IPC: 3.996 (Simulation time: 01 hr 26 min 36 sec)
Warmup finished CPU 5 instructions: 50000001 cycles: 12511028 cumulative IPC: 3.996 (Simulation time: 01 hr 26 min 36 sec)
Heartbeat CPU 5 instructions: 50000005 cycles: 12511029 heartbeat IPC: 3.997 cumulative IPC: 3.996 (Simulation time: 01 hr 26 min 36 sec)
Warmup finished CPU 12 instructions: 50000002 cycles: 12511102 cumulative IPC: 3.996 (Simulation time: 01 hr 26 min 36 sec)
Heartbeat CPU 12 instructions: 50000006 cycles: 12511103 heartbeat IPC: 3.997 cumulative IPC: 3.996 (Simulation time: 01 hr 26 min 36 sec)
Warmup finished CPU 14 instructions: 50000002 cycles: 12511231 cumulative IPC: 3.996 (Simulation time: 01 hr 26 min 36 sec)
Heartbeat CPU 14 instructions: 50000006 cycles: 12511232 heartbeat IPC: 3.997 cumulative IPC: 3.996 (Simulation time: 01 hr 26 min 36 sec)
Warmup finished CPU 6 instructions: 50000002 cycles: 12511235 cumulative IPC: 3.996 (Simulation time: 01 hr 26 min 36 sec)
Heartbeat CPU 6 instructions: 50000006 cycles: 12511236 heartbeat IPC: 3.997 cumulative IPC: 3.996 (Simulation time: 01 hr 26 min 36 sec)
Heartbeat CPU 7 instructions: 50000003 cycles: 12511253 heartbeat IPC: 3.997 cumulative IPC: 3.996 (Simulation time: 01 hr 26 min 36 sec)
Warmup finished CPU 7 instructions: 50000003 cycles: 12511253 cumulative IPC: 3.996 (Simulation time: 01 hr 26 min 36 sec)
Heartbeat CPU 15 instructions: 50000003 cycles: 12511340 heartbeat IPC: 3.997 cumulative IPC: 3.996 (Simulation time: 01 hr 26 min 36 sec)
Warmup finished CPU 15 instructions: 50000003 cycles: 12511340 cumulative IPC: 3.996 (Simulation time: 01 hr 26 min 36 sec)
Warmup finished CPU 2 instructions: 50000002 cycles: 12512865 cumulative IPC: 3.996 (Simulation time: 01 hr 26 min 37 sec)
Heartbeat CPU 2 instructions: 50000006 cycles: 12512866 heartbeat IPC: 3.996 cumulative IPC: 3.996 (Simulation time: 01 hr 26 min 37 sec)
Warmup finished CPU 10 instructions: 50000002 cycles: 12513048 cumulative IPC: 3.996 (Simulation time: 01 hr 26 min 37 sec)
Heartbeat CPU 10 instructions: 50000006 cycles: 12513049 heartbeat IPC: 3.996 cumulative IPC: 3.996 (Simulation time: 01 hr 26 min 37 sec)
Heartbeat CPU 1 instructions: 30000006 cycles: 14296520 heartbeat IPC: 1.887 cumulative IPC: 2.098 (Simulation time: 01 hr 38 min 48 sec)
Heartbeat CPU 9 instructions: 30000006 cycles: 14296523 heartbeat IPC: 1.887 cumulative IPC: 2.098 (Simulation time: 01 hr 38 min 48 sec)
Heartbeat CPU 4 instructions: 60000006 cycles: 15010914 heartbeat IPC: 4 cumulative IPC: 3.997 (Simulation time: 01 hr 43 min 31 sec)
Heartbeat CPU 11 instructions: 60000008 cycles: 15010995 heartbeat IPC: 4 cumulative IPC: 3.997 (Simulation time: 01 hr 43 min 32 sec)
Heartbeat CPU 3 instructions: 60000008 cycles: 15010996 heartbeat IPC: 4 cumulative IPC: 3.997 (Simulation time: 01 hr 43 min 32 sec)
Heartbeat CPU 13 instructions: 60000009 cycles: 15010998 heartbeat IPC: 4 cumulative IPC: 3.997 (Simulation time: 01 hr 43 min 32 sec)
Heartbeat CPU 5 instructions: 60000005 cycles: 15011029 heartbeat IPC: 4 cumulative IPC: 3.997 (Simulation time: 01 hr 43 min 32 sec)
Heartbeat CPU 12 instructions: 60000006 cycles: 15011103 heartbeat IPC: 4 cumulative IPC: 3.997 (Simulation time: 01 hr 43 min 32 sec)
Heartbeat CPU 14 instructions: 60000006 cycles: 15011232 heartbeat IPC: 4 cumulative IPC: 3.997 (Simulation time: 01 hr 43 min 32 sec)
Heartbeat CPU 6 instructions: 60000006 cycles: 15011236 heartbeat IPC: 4 cumulative IPC: 3.997 (Simulation time: 01 hr 43 min 32 sec)
Heartbeat CPU 7 instructions: 60000003 cycles: 15011253 heartbeat IPC: 4 cumulative IPC: 3.997 (Simulation time: 01 hr 43 min 32 sec)
Heartbeat CPU 15 instructions: 60000003 cycles: 15011340 heartbeat IPC: 4 cumulative IPC: 3.997 (Simulation time: 01 hr 43 min 32 sec)
Heartbeat CPU 2 instructions: 60000006 cycles: 15012866 heartbeat IPC: 4 cumulative IPC: 3.997 (Simulation time: 01 hr 43 min 32 sec)
Heartbeat CPU 10 instructions: 60000006 cycles: 15013049 heartbeat IPC: 4 cumulative IPC: 3.997 (Simulation time: 01 hr 43 min 32 sec)
Heartbeat CPU 4 instructions: 70000006 cycles: 17510914 heartbeat IPC: 4 cumulative IPC: 3.998 (Simulation time: 02 hr 00 min 38 sec)
Heartbeat CPU 11 instructions: 70000008 cycles: 17510995 heartbeat IPC: 4 cumulative IPC: 3.997 (Simulation time: 02 hr 00 min 38 sec)
Heartbeat CPU 3 instructions: 70000008 cycles: 17510996 heartbeat IPC: 4 cumulative IPC: 3.997 (Simulation time: 02 hr 00 min 38 sec)
Heartbeat CPU 13 instructions: 70000009 cycles: 17510998 heartbeat IPC: 4 cumulative IPC: 3.997 (Simulation time: 02 hr 00 min 38 sec)
Heartbeat CPU 5 instructions: 70000005 cycles: 17511029 heartbeat IPC: 4 cumulative IPC: 3.997 (Simulation time: 02 hr 00 min 38 sec)
Heartbeat CPU 12 instructions: 70000006 cycles: 17511103 heartbeat IPC: 4 cumulative IPC: 3.997 (Simulation time: 02 hr 00 min 38 sec)
Heartbeat CPU 14 instructions: 70000006 cycles: 17511232 heartbeat IPC: 4 cumulative IPC: 3.997 (Simulation time: 02 hr 00 min 38 sec)
Heartbeat CPU 6 instructions: 70000006 cycles: 17511236 heartbeat IPC: 4 cumulative IPC: 3.997 (Simulation time: 02 hr 00 min 38 sec)
Heartbeat CPU 7 instructions: 70000003 cycles: 17511253 heartbeat IPC: 4 cumulative IPC: 3.997 (Simulation time: 02 hr 00 min 38 sec)
Heartbeat CPU 15 instructions: 70000003 cycles: 17511340 heartbeat IPC: 4 cumulative IPC: 3.997 (Simulation time: 02 hr 00 min 38 sec)
Heartbeat CPU 2 instructions: 70000006 cycles: 17512866 heartbeat IPC: 4 cumulative IPC: 3.997 (Simulation time: 02 hr 00 min 39 sec)
Heartbeat CPU 10 instructions: 70000006 cycles: 17513049 heartbeat IPC: 4 cumulative IPC: 3.997 (Simulation time: 02 hr 00 min 39 sec)
Heartbeat CPU 9 instructions: 40000007 cycles: 18528015 heartbeat IPC: 2.363 cumulative IPC: 2.159 (Simulation time: 02 hr 07 min 43 sec)
Heartbeat CPU 1 instructions: 40000007 cycles: 18528017 heartbeat IPC: 2.363 cumulative IPC: 2.159 (Simulation time: 02 hr 07 min 43 sec)
Heartbeat CPU 4 instructions: 80000006 cycles: 20010914 heartbeat IPC: 4 cumulative IPC: 3.998 (Simulation time: 02 hr 17 min 30 sec)
Heartbeat CPU 11 instructions: 80000008 cycles: 20010995 heartbeat IPC: 4 cumulative IPC: 3.998 (Simulation time: 02 hr 17 min 30 sec)
Heartbeat CPU 3 instructions: 80000008 cycles: 20010996 heartbeat IPC: 4 cumulative IPC: 3.998 (Simulation time: 02 hr 17 min 30 sec)
Heartbeat CPU 13 instructions: 80000009 cycles: 20010998 heartbeat IPC: 4 cumulative IPC: 3.998 (Simulation time: 02 hr 17 min 30 sec)
Heartbeat CPU 5 instructions: 80000005 cycles: 20011029 heartbeat IPC: 4 cumulative IPC: 3.998 (Simulation time: 02 hr 17 min 30 sec)
Heartbeat CPU 12 instructions: 80000006 cycles: 20011103 heartbeat IPC: 4 cumulative IPC: 3.998 (Simulation time: 02 hr 17 min 30 sec)
Heartbeat CPU 14 instructions: 80000006 cycles: 20011232 heartbeat IPC: 4 cumulative IPC: 3.998 (Simulation time: 02 hr 17 min 30 sec)
Heartbeat CPU 6 instructions: 80000006 cycles: 20011236 heartbeat IPC: 4 cumulative IPC: 3.998 (Simulation time: 02 hr 17 min 30 sec)
Heartbeat CPU 7 instructions: 80000003 cycles: 20011253 heartbeat IPC: 4 cumulative IPC: 3.998 (Simulation time: 02 hr 17 min 30 sec)
Heartbeat CPU 15 instructions: 80000003 cycles: 20011340 heartbeat IPC: 4 cumulative IPC: 3.998 (Simulation time: 02 hr 17 min 30 sec)
Heartbeat CPU 2 instructions: 80000006 cycles: 20012866 heartbeat IPC: 4 cumulative IPC: 3.997 (Simulation time: 02 hr 17 min 31 sec)
Heartbeat CPU 10 instructions: 80000006 cycles: 20013049 heartbeat IPC: 4 cumulative IPC: 3.997 (Simulation time: 02 hr 17 min 31 sec)
*** Reached end of trace: (9, "/home/harshraj/COALESCE-Hashed-Perceptron-Cache-Replacement-Policy/simulator/traces/ocean_8t/ocean1.champsimtrace")
*** Reached end of trace: (1, "/home/harshraj/COALESCE-Hashed-Perceptron-Cache-Replacement-Policy/simulator/traces/ocean_8t/ocean1.champsimtrace")
Heartbeat CPU 0 instructions: 10000000 cycles: 20626273 heartbeat IPC: 0.4848 cumulative IPC: 0.4848 (Simulation time: 02 hr 21 min 42 sec)
Heartbeat CPU 8 instructions: 10000000 cycles: 20626447 heartbeat IPC: 0.4848 cumulative IPC: 0.4848 (Simulation time: 02 hr 21 min 42 sec)
Warmup finished CPU 1 instructions: 50000000 cycles: 22407911 cumulative IPC: 2.231 (Simulation time: 02 hr 34 min 00 sec)
Heartbeat CPU 1 instructions: 50000008 cycles: 22407913 heartbeat IPC: 2.577 cumulative IPC: 2.231 (Simulation time: 02 hr 34 min 01 sec)
Warmup finished CPU 9 instructions: 50000002 cycles: 22408188 cumulative IPC: 2.231 (Simulation time: 02 hr 34 min 01 sec)
Heartbeat CPU 9 instructions: 50000010 cycles: 22408191 heartbeat IPC: 2.577 cumulative IPC: 2.231 (Simulation time: 02 hr 34 min 01 sec)
Heartbeat CPU 4 instructions: 90000006 cycles: 22510914 heartbeat IPC: 4 cumulative IPC: 3.998 (Simulation time: 02 hr 34 min 43 sec)
Heartbeat CPU 11 instructions: 90000008 cycles: 22510995 heartbeat IPC: 4 cumulative IPC: 3.998 (Simulation time: 02 hr 34 min 43 sec)
Heartbeat CPU 3 instructions: 90000008 cycles: 22510996 heartbeat IPC: 4 cumulative IPC: 3.998 (Simulation time: 02 hr 34 min 43 sec)
Heartbeat CPU 13 instructions: 90000009 cycles: 22510998 heartbeat IPC: 4 cumulative IPC: 3.998 (Simulation time: 02 hr 34 min 43 sec)
Heartbeat CPU 5 instructions: 90000005 cycles: 22511029 heartbeat IPC: 4 cumulative IPC: 3.998 (Simulation time: 02 hr 34 min 43 sec)
Heartbeat CPU 12 instructions: 90000006 cycles: 22511103 heartbeat IPC: 4 cumulative IPC: 3.998 (Simulation time: 02 hr 34 min 44 sec)
Heartbeat CPU 14 instructions: 90000006 cycles: 22511232 heartbeat IPC: 4 cumulative IPC: 3.998 (Simulation time: 02 hr 34 min 44 sec)
Heartbeat CPU 6 instructions: 90000006 cycles: 22511236 heartbeat IPC: 4 cumulative IPC: 3.998 (Simulation time: 02 hr 34 min 44 sec)
Heartbeat CPU 7 instructions: 90000003 cycles: 22511253 heartbeat IPC: 4 cumulative IPC: 3.998 (Simulation time: 02 hr 34 min 44 sec)
Heartbeat CPU 15 instructions: 90000003 cycles: 22511340 heartbeat IPC: 4 cumulative IPC: 3.998 (Simulation time: 02 hr 34 min 44 sec)
Heartbeat CPU 2 instructions: 90000006 cycles: 22512866 heartbeat IPC: 4 cumulative IPC: 3.998 (Simulation time: 02 hr 34 min 44 sec)
Heartbeat CPU 10 instructions: 90000006 cycles: 22513049 heartbeat IPC: 4 cumulative IPC: 3.998 (Simulation time: 02 hr 34 min 44 sec)
*** Reached end of trace: (2, "/home/harshraj/COALESCE-Hashed-Perceptron-Cache-Replacement-Policy/simulator/traces/ocean_8t/ocean2.champsimtrace")
*** Reached end of trace: (10, "/home/harshraj/COALESCE-Hashed-Perceptron-Cache-Replacement-Policy/simulator/traces/ocean_8t/ocean2.champsimtrace")
*** Reached end of trace: (13, "/home/harshraj/COALESCE-Hashed-Perceptron-Cache-Replacement-Policy/simulator/traces/ocean_8t/ocean5.champsimtrace")
*** Reached end of trace: (5, "/home/harshraj/COALESCE-Hashed-Perceptron-Cache-Replacement-Policy/simulator/traces/ocean_8t/ocean5.champsimtrace")
*** Reached end of trace: (4, "/home/harshraj/COALESCE-Hashed-Perceptron-Cache-Replacement-Policy/simulator/traces/ocean_8t/ocean4.champsimtrace")
*** Reached end of trace: (12, "/home/harshraj/COALESCE-Hashed-Perceptron-Cache-Replacement-Policy/simulator/traces/ocean_8t/ocean4.champsimtrace")
*** Reached end of trace: (14, "/home/harshraj/COALESCE-Hashed-Perceptron-Cache-Replacement-Policy/simulator/traces/ocean_8t/ocean6.champsimtrace")
*** Reached end of trace: (6, "/home/harshraj/COALESCE-Hashed-Perceptron-Cache-Replacement-Policy/simulator/traces/ocean_8t/ocean6.champsimtrace")
*** Reached end of trace: (11, "/home/harshraj/COALESCE-Hashed-Perceptron-Cache-Replacement-Policy/simulator/traces/ocean_8t/ocean3.champsimtrace")
*** Reached end of trace: (3, "/home/harshraj/COALESCE-Hashed-Perceptron-Cache-Replacement-Policy/simulator/traces/ocean_8t/ocean3.champsimtrace")
*** Reached end of trace: (7, "/home/harshraj/COALESCE-Hashed-Perceptron-Cache-Replacement-Policy/simulator/traces/ocean_8t/ocean7.champsimtrace")
*** Reached end of trace: (15, "/home/harshraj/COALESCE-Hashed-Perceptron-Cache-Replacement-Policy/simulator/traces/ocean_8t/ocean7.champsimtrace")
Heartbeat CPU 4 instructions: 100000006 cycles: 25010914 heartbeat IPC: 4 cumulative IPC: 3.998 (Simulation time: 02 hr 51 min 56 sec)
Heartbeat CPU 11 instructions: 100000008 cycles: 25010995 heartbeat IPC: 4 cumulative IPC: 3.998 (Simulation time: 02 hr 51 min 56 sec)
Heartbeat CPU 3 instructions: 100000008 cycles: 25010996 heartbeat IPC: 4 cumulative IPC: 3.998 (Simulation time: 02 hr 51 min 56 sec)
Heartbeat CPU 13 instructions: 100000009 cycles: 25010998 heartbeat IPC: 4 cumulative IPC: 3.998 (Simulation time: 02 hr 51 min 56 sec)
Heartbeat CPU 5 instructions: 100000005 cycles: 25011029 heartbeat IPC: 4 cumulative IPC: 3.998 (Simulation time: 02 hr 51 min 56 sec)
Heartbeat CPU 12 instructions: 100000006 cycles: 25011103 heartbeat IPC: 4 cumulative IPC: 3.998 (Simulation time: 02 hr 51 min 56 sec)
Heartbeat CPU 14 instructions: 100000006 cycles: 25011232 heartbeat IPC: 4 cumulative IPC: 3.998 (Simulation time: 02 hr 51 min 56 sec)
Heartbeat CPU 6 instructions: 100000006 cycles: 25011236 heartbeat IPC: 4 cumulative IPC: 3.998 (Simulation time: 02 hr 51 min 56 sec)
Heartbeat CPU 7 instructions: 100000003 cycles: 25011253 heartbeat IPC: 4 cumulative IPC: 3.998 (Simulation time: 02 hr 51 min 56 sec)
Heartbeat CPU 15 instructions: 100000003 cycles: 25011340 heartbeat IPC: 4 cumulative IPC: 3.998 (Simulation time: 02 hr 51 min 56 sec)
Heartbeat CPU 2 instructions: 100000006 cycles: 25012866 heartbeat IPC: 4 cumulative IPC: 3.998 (Simulation time: 02 hr 51 min 57 sec)
Heartbeat CPU 10 instructions: 100000006 cycles: 25013049 heartbeat IPC: 4 cumulative IPC: 3.998 (Simulation time: 02 hr 51 min 57 sec)
Heartbeat CPU 1 instructions: 60000009 cycles: 26507353 heartbeat IPC: 2.439 cumulative IPC: 2.264 (Simulation time: 03 hr 02 min 17 sec)
Heartbeat CPU 9 instructions: 60000013 cycles: 26510225 heartbeat IPC: 2.438 cumulative IPC: 2.263 (Simulation time: 03 hr 02 min 18 sec)
Heartbeat CPU 4 instructions: 110000006 cycles: 27510914 heartbeat IPC: 4 cumulative IPC: 3.998 (Simulation time: 03 hr 08 min 55 sec)
Heartbeat CPU 11 instructions: 110000008 cycles: 27510995 heartbeat IPC: 4 cumulative IPC: 3.998 (Simulation time: 03 hr 08 min 55 sec)
Heartbeat CPU 3 instructions: 110000008 cycles: 27510996 heartbeat IPC: 4 cumulative IPC: 3.998 (Simulation time: 03 hr 08 min 55 sec)
Heartbeat CPU 13 instructions: 110000009 cycles: 27510998 heartbeat IPC: 4 cumulative IPC: 3.998 (Simulation time: 03 hr 08 min 55 sec)
Heartbeat CPU 5 instructions: 110000005 cycles: 27511029 heartbeat IPC: 4 cumulative IPC: 3.998 (Simulation time: 03 hr 08 min 55 sec)
Heartbeat CPU 12 instructions: 110000006 cycles: 27511103 heartbeat IPC: 4 cumulative IPC: 3.998 (Simulation time: 03 hr 08 min 55 sec)
Heartbeat CPU 14 instructions: 110000006 cycles: 27511232 heartbeat IPC: 4 cumulative IPC: 3.998 (Simulation time: 03 hr 08 min 55 sec)
Heartbeat CPU 6 instructions: 110000006 cycles: 27511236 heartbeat IPC: 4 cumulative IPC: 3.998 (Simulation time: 03 hr 08 min 55 sec)
Heartbeat CPU 7 instructions: 110000003 cycles: 27511253 heartbeat IPC: 4 cumulative IPC: 3.998 (Simulation time: 03 hr 08 min 55 sec)
Heartbeat CPU 15 instructions: 110000003 cycles: 27511340 heartbeat IPC: 4 cumulative IPC: 3.998 (Simulation time: 03 hr 08 min 55 sec)
Heartbeat CPU 2 instructions: 110000006 cycles: 27512866 heartbeat IPC: 4 cumulative IPC: 3.998 (Simulation time: 03 hr 08 min 56 sec)
Heartbeat CPU 10 instructions: 110000006 cycles: 27513049 heartbeat IPC: 4 cumulative IPC: 3.998 (Simulation time: 03 hr 08 min 56 sec)
Heartbeat CPU 4 instructions: 120000006 cycles: 30010914 heartbeat IPC: 4 cumulative IPC: 3.999 (Simulation time: 03 hr 25 min 59 sec)
Heartbeat CPU 11 instructions: 120000008 cycles: 30010995 heartbeat IPC: 4 cumulative IPC: 3.999 (Simulation time: 03 hr 25 min 59 sec)
Heartbeat CPU 3 instructions: 120000008 cycles: 30010996 heartbeat IPC: 4 cumulative IPC: 3.999 (Simulation time: 03 hr 25 min 59 sec)
Heartbeat CPU 13 instructions: 120000009 cycles: 30010998 heartbeat IPC: 4 cumulative IPC: 3.999 (Simulation time: 03 hr 25 min 59 sec)
Heartbeat CPU 5 instructions: 120000005 cycles: 30011029 heartbeat IPC: 4 cumulative IPC: 3.999 (Simulation time: 03 hr 25 min 59 sec)
Heartbeat CPU 12 instructions: 120000006 cycles: 30011103 heartbeat IPC: 4 cumulative IPC: 3.999 (Simulation time: 03 hr 25 min 59 sec)
Heartbeat CPU 14 instructions: 120000006 cycles: 30011232 heartbeat IPC: 4 cumulative IPC: 3.999 (Simulation time: 03 hr 25 min 59 sec)
Heartbeat CPU 6 instructions: 120000006 cycles: 30011236 heartbeat IPC: 4 cumulative IPC: 3.999 (Simulation time: 03 hr 25 min 59 sec)
Heartbeat CPU 7 instructions: 120000003 cycles: 30011253 heartbeat IPC: 4 cumulative IPC: 3.999 (Simulation time: 03 hr 25 min 59 sec)
Heartbeat CPU 15 instructions: 120000003 cycles: 30011340 heartbeat IPC: 4 cumulative IPC: 3.998 (Simulation time: 03 hr 25 min 59 sec)
Heartbeat CPU 2 instructions: 120000006 cycles: 30012866 heartbeat IPC: 4 cumulative IPC: 3.998 (Simulation time: 03 hr 25 min 59 sec)
Heartbeat CPU 10 instructions: 120000006 cycles: 30013049 heartbeat IPC: 4 cumulative IPC: 3.998 (Simulation time: 03 hr 26 min 00 sec)
Heartbeat CPU 1 instructions: 70000009 cycles: 30668229 heartbeat IPC: 2.403 cumulative IPC: 2.282 (Simulation time: 03 hr 30 min 47 sec)
Heartbeat CPU 9 instructions: 70000013 cycles: 30668232 heartbeat IPC: 2.405 cumulative IPC: 2.282 (Simulation time: 03 hr 30 min 47 sec)
Heartbeat CPU 4 instructions: 130000006 cycles: 32510914 heartbeat IPC: 4 cumulative IPC: 3.999 (Simulation time: 03 hr 44 min 09 sec)
Heartbeat CPU 11 instructions: 130000008 cycles: 32510995 heartbeat IPC: 4 cumulative IPC: 3.999 (Simulation time: 03 hr 44 min 09 sec)
Heartbeat CPU 3 instructions: 130000008 cycles: 32510996 heartbeat IPC: 4 cumulative IPC: 3.999 (Simulation time: 03 hr 44 min 09 sec)
Heartbeat CPU 13 instructions: 130000009 cycles: 32510998 heartbeat IPC: 4 cumulative IPC: 3.999 (Simulation time: 03 hr 44 min 09 sec)
Heartbeat CPU 5 instructions: 130000005 cycles: 32511029 heartbeat IPC: 4 cumulative IPC: 3.999 (Simulation time: 03 hr 44 min 09 sec)
Heartbeat CPU 12 instructions: 130000006 cycles: 32511103 heartbeat IPC: 4 cumulative IPC: 3.999 (Simulation time: 03 hr 44 min 09 sec)
Heartbeat CPU 14 instructions: 130000006 cycles: 32511232 heartbeat IPC: 4 cumulative IPC: 3.999 (Simulation time: 03 hr 44 min 09 sec)
Heartbeat CPU 6 instructions: 130000006 cycles: 32511236 heartbeat IPC: 4 cumulative IPC: 3.999 (Simulation time: 03 hr 44 min 09 sec)
Heartbeat CPU 7 instructions: 130000003 cycles: 32511253 heartbeat IPC: 4 cumulative IPC: 3.999 (Simulation time: 03 hr 44 min 09 sec)
Heartbeat CPU 15 instructions: 130000003 cycles: 32511340 heartbeat IPC: 4 cumulative IPC: 3.999 (Simulation time: 03 hr 44 min 09 sec)
Heartbeat CPU 2 instructions: 130000006 cycles: 32512866 heartbeat IPC: 4 cumulative IPC: 3.998 (Simulation time: 03 hr 44 min 09 sec)
Heartbeat CPU 10 instructions: 130000006 cycles: 32513049 heartbeat IPC: 4 cumulative IPC: 3.998 (Simulation time: 03 hr 44 min 09 sec)
*** Reached end of trace: (2, "/home/harshraj/COALESCE-Hashed-Perceptron-Cache-Replacement-Policy/simulator/traces/ocean_8t/ocean2.champsimtrace")
*** Reached end of trace: (10, "/home/harshraj/COALESCE-Hashed-Perceptron-Cache-Replacement-Policy/simulator/traces/ocean_8t/ocean2.champsimtrace")
*** Reached end of trace: (13, "/home/harshraj/COALESCE-Hashed-Perceptron-Cache-Replacement-Policy/simulator/traces/ocean_8t/ocean5.champsimtrace")
*** Reached end of trace: (5, "/home/harshraj/COALESCE-Hashed-Perceptron-Cache-Replacement-Policy/simulator/traces/ocean_8t/ocean5.champsimtrace")
*** Reached end of trace: (4, "/home/harshraj/COALESCE-Hashed-Perceptron-Cache-Replacement-Policy/simulator/traces/ocean_8t/ocean4.champsimtrace")
*** Reached end of trace: (12, "/home/harshraj/COALESCE-Hashed-Perceptron-Cache-Replacement-Policy/simulator/traces/ocean_8t/ocean4.champsimtrace")
*** Reached end of trace: (14, "/home/harshraj/COALESCE-Hashed-Perceptron-Cache-Replacement-Policy/simulator/traces/ocean_8t/ocean6.champsimtrace")
*** Reached end of trace: (6, "/home/harshraj/COALESCE-Hashed-Perceptron-Cache-Replacement-Policy/simulator/traces/ocean_8t/ocean6.champsimtrace")
*** Reached end of trace: (11, "/home/harshraj/COALESCE-Hashed-Perceptron-Cache-Replacement-Policy/simulator/traces/ocean_8t/ocean3.champsimtrace")
*** Reached end of trace: (3, "/home/harshraj/COALESCE-Hashed-Perceptron-Cache-Replacement-Policy/simulator/traces/ocean_8t/ocean3.champsimtrace")
*** Reached end of trace: (7, "/home/harshraj/COALESCE-Hashed-Perceptron-Cache-Replacement-Policy/simulator/traces/ocean_8t/ocean7.champsimtrace")
*** Reached end of trace: (15, "/home/harshraj/COALESCE-Hashed-Perceptron-Cache-Replacement-Policy/simulator/traces/ocean_8t/ocean7.champsimtrace")
Heartbeat CPU 4 instructions: 140000006 cycles: 35010914 heartbeat IPC: 4 cumulative IPC: 3.999 (Simulation time: 04 hr 00 min 49 sec)
Heartbeat CPU 11 instructions: 140000008 cycles: 35010995 heartbeat IPC: 4 cumulative IPC: 3.999 (Simulation time: 04 hr 00 min 49 sec)
Heartbeat CPU 3 instructions: 140000008 cycles: 35010996 heartbeat IPC: 4 cumulative IPC: 3.999 (Simulation time: 04 hr 00 min 49 sec)
Heartbeat CPU 13 instructions: 140000009 cycles: 35010998 heartbeat IPC: 4 cumulative IPC: 3.999 (Simulation time: 04 hr 00 min 49 sec)
Heartbeat CPU 5 instructions: 140000005 cycles: 35011029 heartbeat IPC: 4 cumulative IPC: 3.999 (Simulation time: 04 hr 00 min 49 sec)
Heartbeat CPU 12 instructions: 140000006 cycles: 35011103 heartbeat IPC: 4 cumulative IPC: 3.999 (Simulation time: 04 hr 00 min 49 sec)
Heartbeat CPU 14 instructions: 140000006 cycles: 35011232 heartbeat IPC: 4 cumulative IPC: 3.999 (Simulation time: 04 hr 00 min 49 sec)
Heartbeat CPU 6 instructions: 140000006 cycles: 35011236 heartbeat IPC: 4 cumulative IPC: 3.999 (Simulation time: 04 hr 00 min 49 sec)
Heartbeat CPU 7 instructions: 140000003 cycles: 35011253 heartbeat IPC: 4 cumulative IPC: 3.999 (Simulation time: 04 hr 00 min 49 sec)
Heartbeat CPU 15 instructions: 140000003 cycles: 35011340 heartbeat IPC: 4 cumulative IPC: 3.999 (Simulation time: 04 hr 00 min 49 sec)
Heartbeat CPU 2 instructions: 140000006 cycles: 35012866 heartbeat IPC: 4 cumulative IPC: 3.999 (Simulation time: 04 hr 00 min 49 sec)
Heartbeat CPU 10 instructions: 140000006 cycles: 35013049 heartbeat IPC: 4 cumulative IPC: 3.999 (Simulation time: 04 hr 00 min 49 sec)
Heartbeat CPU 9 instructions: 80000013 cycles: 36219919 heartbeat IPC: 1.801 cumulative IPC: 2.209 (Simulation time: 04 hr 09 min 28 sec)
Heartbeat CPU 1 instructions: 80000009 cycles: 36219922 heartbeat IPC: 1.801 cumulative IPC: 2.209 (Simulation time: 04 hr 09 min 28 sec)
Heartbeat CPU 4 instructions: 150000006 cycles: 37510914 heartbeat IPC: 4 cumulative IPC: 3.999 (Simulation time: 04 hr 18 min 21 sec)
Heartbeat CPU 11 instructions: 150000008 cycles: 37510995 heartbeat IPC: 4 cumulative IPC: 3.999 (Simulation time: 04 hr 18 min 21 sec)
Heartbeat CPU 3 instructions: 150000008 cycles: 37510996 heartbeat IPC: 4 cumulative IPC: 3.999 (Simulation time: 04 hr 18 min 21 sec)
Heartbeat CPU 13 instructions: 150000009 cycles: 37510998 heartbeat IPC: 4 cumulative IPC: 3.999 (Simulation time: 04 hr 18 min 21 sec)
Heartbeat CPU 5 instructions: 150000005 cycles: 37511029 heartbeat IPC: 4 cumulative IPC: 3.999 (Simulation time: 04 hr 18 min 21 sec)
Heartbeat CPU 12 instructions: 150000006 cycles: 37511103 heartbeat IPC: 4 cumulative IPC: 3.999 (Simulation time: 04 hr 18 min 21 sec)
Heartbeat CPU 14 instructions: 150000006 cycles: 37511232 heartbeat IPC: 4 cumulative IPC: 3.999 (Simulation time: 04 hr 18 min 21 sec)
Heartbeat CPU 6 instructions: 150000006 cycles: 37511236 heartbeat IPC: 4 cumulative IPC: 3.999 (Simulation time: 04 hr 18 min 21 sec)
Heartbeat CPU 7 instructions: 150000003 cycles: 37511253 heartbeat IPC: 4 cumulative IPC: 3.999 (Simulation time: 04 hr 18 min 21 sec)
Heartbeat CPU 15 instructions: 150000003 cycles: 37511340 heartbeat IPC: 4 cumulative IPC: 3.999 (Simulation time: 04 hr 18 min 21 sec)
Heartbeat CPU 2 instructions: 150000006 cycles: 37512866 heartbeat IPC: 4 cumulative IPC: 3.999 (Simulation time: 04 hr 18 min 22 sec)
Heartbeat CPU 10 instructions: 150000006 cycles: 37513049 heartbeat IPC: 4 cumulative IPC: 3.999 (Simulation time: 04 hr 18 min 22 sec)
Heartbeat CPU 9 instructions: 90000015 cycles: 39649839 heartbeat IPC: 2.916 cumulative IPC: 2.27 (Simulation time: 04 hr 32 min 21 sec)
Heartbeat CPU 1 instructions: 90000010 cycles: 39649841 heartbeat IPC: 2.916 cumulative IPC: 2.27 (Simulation time: 04 hr 32 min 21 sec)
Heartbeat CPU 4 instructions: 160000006 cycles: 40010914 heartbeat IPC: 4 cumulative IPC: 3.999 (Simulation time: 04 hr 35 min 00 sec)
Heartbeat CPU 11 instructions: 160000008 cycles: 40010995 heartbeat IPC: 4 cumulative IPC: 3.999 (Simulation time: 04 hr 35 min 00 sec)
Heartbeat CPU 3 instructions: 160000008 cycles: 40010996 heartbeat IPC: 4 cumulative IPC: 3.999 (Simulation time: 04 hr 35 min 00 sec)
Heartbeat CPU 13 instructions: 160000009 cycles: 40010998 heartbeat IPC: 4 cumulative IPC: 3.999 (Simulation time: 04 hr 35 min 00 sec)
Heartbeat CPU 5 instructions: 160000005 cycles: 40011029 heartbeat IPC: 4 cumulative IPC: 3.999 (Simulation time: 04 hr 35 min 00 sec)
Heartbeat CPU 12 instructions: 160000006 cycles: 40011103 heartbeat IPC: 4 cumulative IPC: 3.999 (Simulation time: 04 hr 35 min 00 sec)
Heartbeat CPU 14 instructions: 160000006 cycles: 40011232 heartbeat IPC: 4 cumulative IPC: 3.999 (Simulation time: 04 hr 35 min 00 sec)
Heartbeat CPU 6 instructions: 160000006 cycles: 40011236 heartbeat IPC: 4 cumulative IPC: 3.999 (Simulation time: 04 hr 35 min 00 sec)
Heartbeat CPU 7 instructions: 160000003 cycles: 40011253 heartbeat IPC: 4 cumulative IPC: 3.999 (Simulation time: 04 hr 35 min 00 sec)
Heartbeat CPU 15 instructions: 160000003 cycles: 40011340 heartbeat IPC: 4 cumulative IPC: 3.999 (Simulation time: 04 hr 35 min 00 sec)
Heartbeat CPU 2 instructions: 160000006 cycles: 40012866 heartbeat IPC: 4 cumulative IPC: 3.999 (Simulation time: 04 hr 35 min 00 sec)
Heartbeat CPU 10 instructions: 160000006 cycles: 40013049 heartbeat IPC: 4 cumulative IPC: 3.999 (Simulation time: 04 hr 35 min 00 sec)
*** Reached end of trace: (9, "/home/harshraj/COALESCE-Hashed-Perceptron-Cache-Replacement-Policy/simulator/traces/ocean_8t/ocean1.champsimtrace")
*** Reached end of trace: (1, "/home/harshraj/COALESCE-Hashed-Perceptron-Cache-Replacement-Policy/simulator/traces/ocean_8t/ocean1.champsimtrace")
Heartbeat CPU 8 instructions: 20000002 cycles: 41762938 heartbeat IPC: 0.4731 cumulative IPC: 0.4789 (Simulation time: 04 hr 47 min 21 sec)
Heartbeat CPU 0 instructions: 20000001 cycles: 41763990 heartbeat IPC: 0.4731 cumulative IPC: 0.4789 (Simulation time: 04 hr 47 min 21 sec)
Heartbeat CPU 4 instructions: 170000006 cycles: 42510914 heartbeat IPC: 4 cumulative IPC: 3.999 (Simulation time: 04 hr 53 min 12 sec)
Heartbeat CPU 11 instructions: 170000008 cycles: 42510995 heartbeat IPC: 4 cumulative IPC: 3.999 (Simulation time: 04 hr 53 min 12 sec)
Heartbeat CPU 3 instructions: 170000008 cycles: 42510996 heartbeat IPC: 4 cumulative IPC: 3.999 (Simulation time: 04 hr 53 min 12 sec)
Heartbeat CPU 13 instructions: 170000009 cycles: 42510998 heartbeat IPC: 4 cumulative IPC: 3.999 (Simulation time: 04 hr 53 min 12 sec)
Heartbeat CPU 5 instructions: 170000005 cycles: 42511029 heartbeat IPC: 4 cumulative IPC: 3.999 (Simulation time: 04 hr 53 min 12 sec)
Heartbeat CPU 12 instructions: 170000006 cycles: 42511103 heartbeat IPC: 4 cumulative IPC: 3.999 (Simulation time: 04 hr 53 min 12 sec)
Heartbeat CPU 14 instructions: 170000006 cycles: 42511232 heartbeat IPC: 4 cumulative IPC: 3.999 (Simulation time: 04 hr 53 min 12 sec)
Heartbeat CPU 6 instructions: 170000006 cycles: 42511236 heartbeat IPC: 4 cumulative IPC: 3.999 (Simulation time: 04 hr 53 min 12 sec)
Heartbeat CPU 7 instructions: 170000003 cycles: 42511253 heartbeat IPC: 4 cumulative IPC: 3.999 (Simulation time: 04 hr 53 min 12 sec)
Heartbeat CPU 15 instructions: 170000003 cycles: 42511340 heartbeat IPC: 4 cumulative IPC: 3.999 (Simulation time: 04 hr 53 min 12 sec)
Heartbeat CPU 2 instructions: 170000006 cycles: 42512866 heartbeat IPC: 4 cumulative IPC: 3.999 (Simulation time: 04 hr 53 min 13 sec)
Heartbeat CPU 10 instructions: 170000006 cycles: 42513049 heartbeat IPC: 4 cumulative IPC: 3.999 (Simulation time: 04 hr 53 min 13 sec)
Heartbeat CPU 1 instructions: 100000013 cycles: 43744462 heartbeat IPC: 2.442 cumulative IPC: 2.286 (Simulation time: 05 hr 00 min 32 sec)
Heartbeat CPU 9 instructions: 100000017 cycles: 43745182 heartbeat IPC: 2.442 cumulative IPC: 2.286 (Simulation time: 05 hr 00 min 32 sec)
Heartbeat CPU 4 instructions: 180000006 cycles: 45010914 heartbeat IPC: 4 cumulative IPC: 3.999 (Simulation time: 05 hr 09 min 05 sec)
Heartbeat CPU 11 instructions: 180000008 cycles: 45010995 heartbeat IPC: 4 cumulative IPC: 3.999 (Simulation time: 05 hr 09 min 05 sec)
Heartbeat CPU 3 instructions: 180000008 cycles: 45010996 heartbeat IPC: 4 cumulative IPC: 3.999 (Simulation time: 05 hr 09 min 05 sec)
Heartbeat CPU 13 instructions: 180000009 cycles: 45010998 heartbeat IPC: 4 cumulative IPC: 3.999 (Simulation time: 05 hr 09 min 05 sec)
Heartbeat CPU 5 instructions: 180000005 cycles: 45011029 heartbeat IPC: 4 cumulative IPC: 3.999 (Simulation time: 05 hr 09 min 05 sec)
Heartbeat CPU 12 instructions: 180000006 cycles: 45011103 heartbeat IPC: 4 cumulative IPC: 3.999 (Simulation time: 05 hr 09 min 05 sec)
Heartbeat CPU 14 instructions: 180000006 cycles: 45011232 heartbeat IPC: 4 cumulative IPC: 3.999 (Simulation time: 05 hr 09 min 05 sec)
Heartbeat CPU 6 instructions: 180000006 cycles: 45011236 heartbeat IPC: 4 cumulative IPC: 3.999 (Simulation time: 05 hr 09 min 05 sec)
Heartbeat CPU 7 instructions: 180000003 cycles: 45011253 heartbeat IPC: 4 cumulative IPC: 3.999 (Simulation time: 05 hr 09 min 05 sec)
Heartbeat CPU 15 instructions: 180000003 cycles: 45011340 heartbeat IPC: 4 cumulative IPC: 3.999 (Simulation time: 05 hr 09 min 05 sec)
Heartbeat CPU 2 instructions: 180000006 cycles: 45012866 heartbeat IPC: 4 cumulative IPC: 3.999 (Simulation time: 05 hr 09 min 05 sec)
Heartbeat CPU 10 instructions: 180000006 cycles: 45013049 heartbeat IPC: 4 cumulative IPC: 3.999 (Simulation time: 05 hr 09 min 05 sec)
*** Reached end of trace: (2, "/home/harshraj/COALESCE-Hashed-Perceptron-Cache-Replacement-Policy/simulator/traces/ocean_8t/ocean2.champsimtrace")
*** Reached end of trace: (10, "/home/harshraj/COALESCE-Hashed-Perceptron-Cache-Replacement-Policy/simulator/traces/ocean_8t/ocean2.champsimtrace")
*** Reached end of trace: (13, "/home/harshraj/COALESCE-Hashed-Perceptron-Cache-Replacement-Policy/simulator/traces/ocean_8t/ocean5.champsimtrace")
*** Reached end of trace: (5, "/home/harshraj/COALESCE-Hashed-Perceptron-Cache-Replacement-Policy/simulator/traces/ocean_8t/ocean5.champsimtrace")
*** Reached end of trace: (4, "/home/harshraj/COALESCE-Hashed-Perceptron-Cache-Replacement-Policy/simulator/traces/ocean_8t/ocean4.champsimtrace")
*** Reached end of trace: (12, "/home/harshraj/COALESCE-Hashed-Perceptron-Cache-Replacement-Policy/simulator/traces/ocean_8t/ocean4.champsimtrace")
*** Reached end of trace: (14, "/home/harshraj/COALESCE-Hashed-Perceptron-Cache-Replacement-Policy/simulator/traces/ocean_8t/ocean6.champsimtrace")
*** Reached end of trace: (6, "/home/harshraj/COALESCE-Hashed-Perceptron-Cache-Replacement-Policy/simulator/traces/ocean_8t/ocean6.champsimtrace")
*** Reached end of trace: (11, "/home/harshraj/COALESCE-Hashed-Perceptron-Cache-Replacement-Policy/simulator/traces/ocean_8t/ocean3.champsimtrace")
*** Reached end of trace: (3, "/home/harshraj/COALESCE-Hashed-Perceptron-Cache-Replacement-Policy/simulator/traces/ocean_8t/ocean3.champsimtrace")
*** Reached end of trace: (7, "/home/harshraj/COALESCE-Hashed-Perceptron-Cache-Replacement-Policy/simulator/traces/ocean_8t/ocean7.champsimtrace")
*** Reached end of trace: (15, "/home/harshraj/COALESCE-Hashed-Perceptron-Cache-Replacement-Policy/simulator/traces/ocean_8t/ocean7.champsimtrace")
Heartbeat CPU 4 instructions: 190000006 cycles: 47510914 heartbeat IPC: 4 cumulative IPC: 3.999 (Simulation time: 05 hr 26 min 21 sec)
Heartbeat CPU 11 instructions: 190000008 cycles: 47510995 heartbeat IPC: 4 cumulative IPC: 3.999 (Simulation time: 05 hr 26 min 21 sec)
Heartbeat CPU 3 instructions: 190000008 cycles: 47510996 heartbeat IPC: 4 cumulative IPC: 3.999 (Simulation time: 05 hr 26 min 21 sec)
Heartbeat CPU 13 instructions: 190000009 cycles: 47510998 heartbeat IPC: 4 cumulative IPC: 3.999 (Simulation time: 05 hr 26 min 21 sec)
Heartbeat CPU 5 instructions: 190000005 cycles: 47511029 heartbeat IPC: 4 cumulative IPC: 3.999 (Simulation time: 05 hr 26 min 21 sec)
Heartbeat CPU 12 instructions: 190000006 cycles: 47511103 heartbeat IPC: 4 cumulative IPC: 3.999 (Simulation time: 05 hr 26 min 21 sec)
Heartbeat CPU 14 instructions: 190000006 cycles: 47511232 heartbeat IPC: 4 cumulative IPC: 3.999 (Simulation time: 05 hr 26 min 21 sec)
Heartbeat CPU 6 instructions: 190000006 cycles: 47511236 heartbeat IPC: 4 cumulative IPC: 3.999 (Simulation time: 05 hr 26 min 21 sec)
Heartbeat CPU 7 instructions: 190000003 cycles: 47511253 heartbeat IPC: 4 cumulative IPC: 3.999 (Simulation time: 05 hr 26 min 21 sec)
Heartbeat CPU 15 instructions: 190000003 cycles: 47511340 heartbeat IPC: 4 cumulative IPC: 3.999 (Simulation time: 05 hr 26 min 21 sec)
Heartbeat CPU 2 instructions: 190000006 cycles: 47512866 heartbeat IPC: 4 cumulative IPC: 3.999 (Simulation time: 05 hr 26 min 22 sec)
Heartbeat CPU 10 instructions: 190000006 cycles: 47513049 heartbeat IPC: 4 cumulative IPC: 3.999 (Simulation time: 05 hr 26 min 22 sec)
Heartbeat CPU 1 instructions: 110000014 cycles: 47838688 heartbeat IPC: 2.442 cumulative IPC: 2.299 (Simulation time: 05 hr 28 min 32 sec)
Heartbeat CPU 9 instructions: 110000018 cycles: 47838690 heartbeat IPC: 2.443 cumulative IPC: 2.299 (Simulation time: 05 hr 28 min 32 sec)
Heartbeat CPU 4 instructions: 200000006 cycles: 50010914 heartbeat IPC: 4 cumulative IPC: 3.999 (Simulation time: 05 hr 42 min 58 sec)
Heartbeat CPU 11 instructions: 200000008 cycles: 50010995 heartbeat IPC: 4 cumulative IPC: 3.999 (Simulation time: 05 hr 42 min 58 sec)
Heartbeat CPU 3 instructions: 200000008 cycles: 50010996 heartbeat IPC: 4 cumulative IPC: 3.999 (Simulation time: 05 hr 42 min 58 sec)
Heartbeat CPU 13 instructions: 200000009 cycles: 50010998 heartbeat IPC: 4 cumulative IPC: 3.999 (Simulation time: 05 hr 42 min 58 sec)
Heartbeat CPU 5 instructions: 200000005 cycles: 50011029 heartbeat IPC: 4 cumulative IPC: 3.999 (Simulation time: 05 hr 42 min 58 sec)
Heartbeat CPU 12 instructions: 200000006 cycles: 50011103 heartbeat IPC: 4 cumulative IPC: 3.999 (Simulation time: 05 hr 42 min 58 sec)
Heartbeat CPU 14 instructions: 200000006 cycles: 50011232 heartbeat IPC: 4 cumulative IPC: 3.999 (Simulation time: 05 hr 42 min 58 sec)
Heartbeat CPU 6 instructions: 200000006 cycles: 50011236 heartbeat IPC: 4 cumulative IPC: 3.999 (Simulation time: 05 hr 42 min 59 sec)
Heartbeat CPU 7 instructions: 200000003 cycles: 50011253 heartbeat IPC: 4 cumulative IPC: 3.999 (Simulation time: 05 hr 42 min 59 sec)
Heartbeat CPU 15 instructions: 200000003 cycles: 50011340 heartbeat IPC: 4 cumulative IPC: 3.999 (Simulation time: 05 hr 42 min 59 sec)
Heartbeat CPU 2 instructions: 200000006 cycles: 50012866 heartbeat IPC: 4 cumulative IPC: 3.999 (Simulation time: 05 hr 42 min 59 sec)
Heartbeat CPU 10 instructions: 200000006 cycles: 50013049 heartbeat IPC: 4 cumulative IPC: 3.999 (Simulation time: 05 hr 42 min 59 sec)
Heartbeat CPU 4 instructions: 210000006 cycles: 52510914 heartbeat IPC: 4 cumulative IPC: 3.999 (Simulation time: 05 hr 59 min 44 sec)
Heartbeat CPU 11 instructions: 210000008 cycles: 52510995 heartbeat IPC: 4 cumulative IPC: 3.999 (Simulation time: 05 hr 59 min 44 sec)
Heartbeat CPU 3 instructions: 210000008 cycles: 52510996 heartbeat IPC: 4 cumulative IPC: 3.999 (Simulation time: 05 hr 59 min 44 sec)
Heartbeat CPU 13 instructions: 210000009 cycles: 52510998 heartbeat IPC: 4 cumulative IPC: 3.999 (Simulation time: 05 hr 59 min 44 sec)
Heartbeat CPU 5 instructions: 210000005 cycles: 52511029 heartbeat IPC: 4 cumulative IPC: 3.999 (Simulation time: 05 hr 59 min 44 sec)
Heartbeat CPU 12 instructions: 210000006 cycles: 52511103 heartbeat IPC: 4 cumulative IPC: 3.999 (Simulation time: 05 hr 59 min 44 sec)
Heartbeat CPU 14 instructions: 210000006 cycles: 52511232 heartbeat IPC: 4 cumulative IPC: 3.999 (Simulation time: 05 hr 59 min 44 sec)
Heartbeat CPU 6 instructions: 210000006 cycles: 52511236 heartbeat IPC: 4 cumulative IPC: 3.999 (Simulation time: 05 hr 59 min 44 sec)
Heartbeat CPU 7 instructions: 210000003 cycles: 52511253 heartbeat IPC: 4 cumulative IPC: 3.999 (Simulation time: 05 hr 59 min 44 sec)
Heartbeat CPU 15 instructions: 210000003 cycles: 52511340 heartbeat IPC: 4 cumulative IPC: 3.999 (Simulation time: 05 hr 59 min 44 sec)
Heartbeat CPU 2 instructions: 210000006 cycles: 52512866 heartbeat IPC: 4 cumulative IPC: 3.999 (Simulation time: 05 hr 59 min 44 sec)
Heartbeat CPU 10 instructions: 210000006 cycles: 52513049 heartbeat IPC: 4 cumulative IPC: 3.999 (Simulation time: 05 hr 59 min 44 sec)
Heartbeat CPU 1 instructions: 120000014 cycles: 52763549 heartbeat IPC: 2.031 cumulative IPC: 2.274 (Simulation time: 06 hr 01 min 11 sec)
Heartbeat CPU 9 instructions: 120000018 cycles: 52763555 heartbeat IPC: 2.031 cumulative IPC: 2.274 (Simulation time: 06 hr 01 min 11 sec)
Heartbeat CPU 4 instructions: 220000006 cycles: 55010914 heartbeat IPC: 4 cumulative IPC: 3.999 (Simulation time: 06 hr 16 min 36 sec)
Heartbeat CPU 11 instructions: 220000008 cycles: 55010995 heartbeat IPC: 4 cumulative IPC: 3.999 (Simulation time: 06 hr 16 min 36 sec)
Heartbeat CPU 3 instructions: 220000008 cycles: 55010996 heartbeat IPC: 4 cumulative IPC: 3.999 (Simulation time: 06 hr 16 min 36 sec)
Heartbeat CPU 13 instructions: 220000009 cycles: 55010998 heartbeat IPC: 4 cumulative IPC: 3.999 (Simulation time: 06 hr 16 min 36 sec)
Heartbeat CPU 5 instructions: 220000005 cycles: 55011029 heartbeat IPC: 4 cumulative IPC: 3.999 (Simulation time: 06 hr 16 min 36 sec)
Heartbeat CPU 12 instructions: 220000006 cycles: 55011103 heartbeat IPC: 4 cumulative IPC: 3.999 (Simulation time: 06 hr 16 min 36 sec)
Heartbeat CPU 14 instructions: 220000006 cycles: 55011232 heartbeat IPC: 4 cumulative IPC: 3.999 (Simulation time: 06 hr 16 min 36 sec)
Heartbeat CPU 6 instructions: 220000006 cycles: 55011236 heartbeat IPC: 4 cumulative IPC: 3.999 (Simulation time: 06 hr 16 min 36 sec)
Heartbeat CPU 7 instructions: 220000003 cycles: 55011253 heartbeat IPC: 4 cumulative IPC: 3.999 (Simulation time: 06 hr 16 min 36 sec)
Heartbeat CPU 15 instructions: 220000003 cycles: 55011340 heartbeat IPC: 4 cumulative IPC: 3.999 (Simulation time: 06 hr 16 min 36 sec)
Heartbeat CPU 2 instructions: 220000006 cycles: 55012866 heartbeat IPC: 4 cumulative IPC: 3.999 (Simulation time: 06 hr 16 min 37 sec)
Heartbeat CPU 10 instructions: 220000006 cycles: 55013049 heartbeat IPC: 4 cumulative IPC: 3.999 (Simulation time: 06 hr 16 min 37 sec)
*** Reached end of trace: (2, "/home/harshraj/COALESCE-Hashed-Perceptron-Cache-Replacement-Policy/simulator/traces/ocean_8t/ocean2.champsimtrace")
*** Reached end of trace: (10, "/home/harshraj/COALESCE-Hashed-Perceptron-Cache-Replacement-Policy/simulator/traces/ocean_8t/ocean2.champsimtrace")
*** Reached end of trace: (13, "/home/harshraj/COALESCE-Hashed-Perceptron-Cache-Replacement-Policy/simulator/traces/ocean_8t/ocean5.champsimtrace")
*** Reached end of trace: (5, "/home/harshraj/COALESCE-Hashed-Perceptron-Cache-Replacement-Policy/simulator/traces/ocean_8t/ocean5.champsimtrace")
*** Reached end of trace: (4, "/home/harshraj/COALESCE-Hashed-Perceptron-Cache-Replacement-Policy/simulator/traces/ocean_8t/ocean4.champsimtrace")
*** Reached end of trace: (12, "/home/harshraj/COALESCE-Hashed-Perceptron-Cache-Replacement-Policy/simulator/traces/ocean_8t/ocean4.champsimtrace")
*** Reached end of trace: (14, "/home/harshraj/COALESCE-Hashed-Perceptron-Cache-Replacement-Policy/simulator/traces/ocean_8t/ocean6.champsimtrace")
*** Reached end of trace: (6, "/home/harshraj/COALESCE-Hashed-Perceptron-Cache-Replacement-Policy/simulator/traces/ocean_8t/ocean6.champsimtrace")
*** Reached end of trace: (11, "/home/harshraj/COALESCE-Hashed-Perceptron-Cache-Replacement-Policy/simulator/traces/ocean_8t/ocean3.champsimtrace")
*** Reached end of trace: (3, "/home/harshraj/COALESCE-Hashed-Perceptron-Cache-Replacement-Policy/simulator/traces/ocean_8t/ocean3.champsimtrace")
*** Reached end of trace: (7, "/home/harshraj/COALESCE-Hashed-Perceptron-Cache-Replacement-Policy/simulator/traces/ocean_8t/ocean7.champsimtrace")
*** Reached end of trace: (15, "/home/harshraj/COALESCE-Hashed-Perceptron-Cache-Replacement-Policy/simulator/traces/ocean_8t/ocean7.champsimtrace")
Heartbeat CPU 9 instructions: 130000019 cycles: 57242463 heartbeat IPC: 2.233 cumulative IPC: 2.271 (Simulation time: 06 hr 32 min 33 sec)
Heartbeat CPU 1 instructions: 130000015 cycles: 57242466 heartbeat IPC: 2.233 cumulative IPC: 2.271 (Simulation time: 06 hr 32 min 33 sec)
Heartbeat CPU 4 instructions: 230000006 cycles: 57510914 heartbeat IPC: 4 cumulative IPC: 3.999 (Simulation time: 06 hr 34 min 15 sec)
Heartbeat CPU 11 instructions: 230000008 cycles: 57510995 heartbeat IPC: 4 cumulative IPC: 3.999 (Simulation time: 06 hr 34 min 15 sec)
Heartbeat CPU 3 instructions: 230000008 cycles: 57510996 heartbeat IPC: 4 cumulative IPC: 3.999 (Simulation time: 06 hr 34 min 15 sec)
Heartbeat CPU 13 instructions: 230000009 cycles: 57510998 heartbeat IPC: 4 cumulative IPC: 3.999 (Simulation time: 06 hr 34 min 15 sec)
Heartbeat CPU 5 instructions: 230000005 cycles: 57511029 heartbeat IPC: 4 cumulative IPC: 3.999 (Simulation time: 06 hr 34 min 15 sec)
Heartbeat CPU 12 instructions: 230000006 cycles: 57511103 heartbeat IPC: 4 cumulative IPC: 3.999 (Simulation time: 06 hr 34 min 15 sec)
Heartbeat CPU 14 instructions: 230000006 cycles: 57511232 heartbeat IPC: 4 cumulative IPC: 3.999 (Simulation time: 06 hr 34 min 15 sec)
Heartbeat CPU 6 instructions: 230000006 cycles: 57511236 heartbeat IPC: 4 cumulative IPC: 3.999 (Simulation time: 06 hr 34 min 15 sec)
Heartbeat CPU 7 instructions: 230000003 cycles: 57511253 heartbeat IPC: 4 cumulative IPC: 3.999 (Simulation time: 06 hr 34 min 15 sec)
Heartbeat CPU 15 instructions: 230000003 cycles: 57511340 heartbeat IPC: 4 cumulative IPC: 3.999 (Simulation time: 06 hr 34 min 15 sec)
Heartbeat CPU 2 instructions: 230000006 cycles: 57512866 heartbeat IPC: 4 cumulative IPC: 3.999 (Simulation time: 06 hr 34 min 15 sec)
Heartbeat CPU 10 instructions: 230000006 cycles: 57513049 heartbeat IPC: 4 cumulative IPC: 3.999 (Simulation time: 06 hr 34 min 15 sec)
*** Reached end of trace: (9, "/home/harshraj/COALESCE-Hashed-Perceptron-Cache-Replacement-Policy/simulator/traces/ocean_8t/ocean1.champsimtrace")
*** Reached end of trace: (1, "/home/harshraj/COALESCE-Hashed-Perceptron-Cache-Replacement-Policy/simulator/traces/ocean_8t/ocean1.champsimtrace")
Heartbeat CPU 4 instructions: 240000006 cycles: 60010914 heartbeat IPC: 4 cumulative IPC: 3.999 (Simulation time: 06 hr 51 min 37 sec)
Heartbeat CPU 11 instructions: 240000008 cycles: 60010995 heartbeat IPC: 4 cumulative IPC: 3.999 (Simulation time: 06 hr 51 min 37 sec)
Heartbeat CPU 3 instructions: 240000008 cycles: 60010996 heartbeat IPC: 4 cumulative IPC: 3.999 (Simulation time: 06 hr 51 min 37 sec)
Heartbeat CPU 13 instructions: 240000009 cycles: 60010998 heartbeat IPC: 4 cumulative IPC: 3.999 (Simulation time: 06 hr 51 min 37 sec)
Heartbeat CPU 5 instructions: 240000005 cycles: 60011029 heartbeat IPC: 4 cumulative IPC: 3.999 (Simulation time: 06 hr 51 min 37 sec)
Heartbeat CPU 12 instructions: 240000006 cycles: 60011103 heartbeat IPC: 4 cumulative IPC: 3.999 (Simulation time: 06 hr 51 min 37 sec)
Heartbeat CPU 14 instructions: 240000006 cycles: 60011232 heartbeat IPC: 4 cumulative IPC: 3.999 (Simulation time: 06 hr 51 min 37 sec)
Heartbeat CPU 6 instructions: 240000006 cycles: 60011236 heartbeat IPC: 4 cumulative IPC: 3.999 (Simulation time: 06 hr 51 min 37 sec)
Heartbeat CPU 7 instructions: 240000003 cycles: 60011253 heartbeat IPC: 4 cumulative IPC: 3.999 (Simulation time: 06 hr 51 min 37 sec)
Heartbeat CPU 15 instructions: 240000003 cycles: 60011340 heartbeat IPC: 4 cumulative IPC: 3.999 (Simulation time: 06 hr 51 min 37 sec)
Heartbeat CPU 2 instructions: 240000006 cycles: 60012866 heartbeat IPC: 4 cumulative IPC: 3.999 (Simulation time: 06 hr 51 min 38 sec)
Heartbeat CPU 10 instructions: 240000006 cycles: 60013049 heartbeat IPC: 4 cumulative IPC: 3.999 (Simulation time: 06 hr 51 min 38 sec)
Heartbeat CPU 1 instructions: 140000015 cycles: 60978042 heartbeat IPC: 2.677 cumulative IPC: 2.296 (Simulation time: 06 hr 58 min 50 sec)
Heartbeat CPU 9 instructions: 140000019 cycles: 60978226 heartbeat IPC: 2.677 cumulative IPC: 2.296 (Simulation time: 06 hr 58 min 50 sec)
Heartbeat CPU 8 instructions: 30000005 cycles: 61832308 heartbeat IPC: 0.4983 cumulative IPC: 0.4852 (Simulation time: 07 hr 04 min 47 sec)
Heartbeat CPU 0 instructions: 30000005 cycles: 61865733 heartbeat IPC: 0.4975 cumulative IPC: 0.4849 (Simulation time: 07 hr 04 min 57 sec)
Heartbeat CPU 4 instructions: 250000006 cycles: 62510914 heartbeat IPC: 4 cumulative IPC: 3.999 (Simulation time: 07 hr 08 min 22 sec)
Heartbeat CPU 11 instructions: 250000008 cycles: 62510995 heartbeat IPC: 4 cumulative IPC: 3.999 (Simulation time: 07 hr 08 min 22 sec)
Heartbeat CPU 3 instructions: 250000008 cycles: 62510996 heartbeat IPC: 4 cumulative IPC: 3.999 (Simulation time: 07 hr 08 min 22 sec)
Heartbeat CPU 13 instructions: 250000009 cycles: 62510998 heartbeat IPC: 4 cumulative IPC: 3.999 (Simulation time: 07 hr 08 min 22 sec)
Heartbeat CPU 5 instructions: 250000005 cycles: 62511029 heartbeat IPC: 4 cumulative IPC: 3.999 (Simulation time: 07 hr 08 min 22 sec)
Heartbeat CPU 12 instructions: 250000006 cycles: 62511103 heartbeat IPC: 4 cumulative IPC: 3.999 (Simulation time: 07 hr 08 min 22 sec)
Heartbeat CPU 14 instructions: 250000006 cycles: 62511232 heartbeat IPC: 4 cumulative IPC: 3.999 (Simulation time: 07 hr 08 min 22 sec)
Heartbeat CPU 6 instructions: 250000006 cycles: 62511236 heartbeat IPC: 4 cumulative IPC: 3.999 (Simulation time: 07 hr 08 min 22 sec)
Heartbeat CPU 7 instructions: 250000003 cycles: 62511253 heartbeat IPC: 4 cumulative IPC: 3.999 (Simulation time: 07 hr 08 min 22 sec)
Heartbeat CPU 15 instructions: 250000003 cycles: 62511340 heartbeat IPC: 4 cumulative IPC: 3.999 (Simulation time: 07 hr 08 min 22 sec)
Heartbeat CPU 2 instructions: 250000006 cycles: 62512866 heartbeat IPC: 4 cumulative IPC: 3.999 (Simulation time: 07 hr 08 min 23 sec)
Heartbeat CPU 10 instructions: 250000006 cycles: 62513049 heartbeat IPC: 4 cumulative IPC: 3.999 (Simulation time: 07 hr 08 min 23 sec)
Heartbeat CPU 4 instructions: 260000006 cycles: 65010914 heartbeat IPC: 4 cumulative IPC: 3.999 (Simulation time: 07 hr 25 min 44 sec)
Heartbeat CPU 11 instructions: 260000008 cycles: 65010995 heartbeat IPC: 4 cumulative IPC: 3.999 (Simulation time: 07 hr 25 min 44 sec)
Heartbeat CPU 3 instructions: 260000008 cycles: 65010996 heartbeat IPC: 4 cumulative IPC: 3.999 (Simulation time: 07 hr 25 min 44 sec)
Heartbeat CPU 13 instructions: 260000009 cycles: 65010998 heartbeat IPC: 4 cumulative IPC: 3.999 (Simulation time: 07 hr 25 min 44 sec)
Heartbeat CPU 5 instructions: 260000005 cycles: 65011029 heartbeat IPC: 4 cumulative IPC: 3.999 (Simulation time: 07 hr 25 min 44 sec)
Heartbeat CPU 12 instructions: 260000006 cycles: 65011103 heartbeat IPC: 4 cumulative IPC: 3.999 (Simulation time: 07 hr 25 min 44 sec)
Heartbeat CPU 14 instructions: 260000006 cycles: 65011232 heartbeat IPC: 4 cumulative IPC: 3.999 (Simulation time: 07 hr 25 min 44 sec)
Heartbeat CPU 6 instructions: 260000006 cycles: 65011236 heartbeat IPC: 4 cumulative IPC: 3.999 (Simulation time: 07 hr 25 min 44 sec)
Heartbeat CPU 7 instructions: 260000003 cycles: 65011253 heartbeat IPC: 4 cumulative IPC: 3.999 (Simulation time: 07 hr 25 min 44 sec)
Heartbeat CPU 15 instructions: 260000003 cycles: 65011340 heartbeat IPC: 4 cumulative IPC: 3.999 (Simulation time: 07 hr 25 min 44 sec)
Heartbeat CPU 2 instructions: 260000006 cycles: 65012866 heartbeat IPC: 4 cumulative IPC: 3.999 (Simulation time: 07 hr 25 min 45 sec)
Heartbeat CPU 10 instructions: 260000006 cycles: 65013049 heartbeat IPC: 4 cumulative IPC: 3.999 (Simulation time: 07 hr 25 min 45 sec)
Heartbeat CPU 1 instructions: 150000015 cycles: 65176224 heartbeat IPC: 2.382 cumulative IPC: 2.301 (Simulation time: 07 hr 26 min 55 sec)
Heartbeat CPU 9 instructions: 150000020 cycles: 65177299 heartbeat IPC: 2.381 cumulative IPC: 2.301 (Simulation time: 07 hr 26 min 55 sec)
Heartbeat CPU 4 instructions: 270000006 cycles: 67510914 heartbeat IPC: 4 cumulative IPC: 3.999 (Simulation time: 07 hr 42 min 38 sec)
Heartbeat CPU 11 instructions: 270000008 cycles: 67510995 heartbeat IPC: 4 cumulative IPC: 3.999 (Simulation time: 07 hr 42 min 38 sec)
Heartbeat CPU 3 instructions: 270000008 cycles: 67510996 heartbeat IPC: 4 cumulative IPC: 3.999 (Simulation time: 07 hr 42 min 38 sec)
Heartbeat CPU 13 instructions: 270000009 cycles: 67510998 heartbeat IPC: 4 cumulative IPC: 3.999 (Simulation time: 07 hr 42 min 38 sec)
Heartbeat CPU 5 instructions: 270000005 cycles: 67511029 heartbeat IPC: 4 cumulative IPC: 3.999 (Simulation time: 07 hr 42 min 38 sec)
Heartbeat CPU 12 instructions: 270000006 cycles: 67511103 heartbeat IPC: 4 cumulative IPC: 3.999 (Simulation time: 07 hr 42 min 38 sec)
Heartbeat CPU 14 instructions: 270000006 cycles: 67511232 heartbeat IPC: 4 cumulative IPC: 3.999 (Simulation time: 07 hr 42 min 38 sec)
Heartbeat CPU 6 instructions: 270000006 cycles: 67511236 heartbeat IPC: 4 cumulative IPC: 3.999 (Simulation time: 07 hr 42 min 38 sec)
Heartbeat CPU 7 instructions: 270000003 cycles: 67511253 heartbeat IPC: 4 cumulative IPC: 3.999 (Simulation time: 07 hr 42 min 38 sec)
Heartbeat CPU 15 instructions: 270000003 cycles: 67511340 heartbeat IPC: 4 cumulative IPC: 3.999 (Simulation time: 07 hr 42 min 38 sec)
Heartbeat CPU 2 instructions: 270000006 cycles: 67512866 heartbeat IPC: 4 cumulative IPC: 3.999 (Simulation time: 07 hr 42 min 38 sec)
Heartbeat CPU 10 instructions: 270000006 cycles: 67513049 heartbeat IPC: 4 cumulative IPC: 3.999 (Simulation time: 07 hr 42 min 38 sec)
*** Reached end of trace: (2, "/home/harshraj/COALESCE-Hashed-Perceptron-Cache-Replacement-Policy/simulator/traces/ocean_8t/ocean2.champsimtrace")
*** Reached end of trace: (10, "/home/harshraj/COALESCE-Hashed-Perceptron-Cache-Replacement-Policy/simulator/traces/ocean_8t/ocean2.champsimtrace")
*** Reached end of trace: (13, "/home/harshraj/COALESCE-Hashed-Perceptron-Cache-Replacement-Policy/simulator/traces/ocean_8t/ocean5.champsimtrace")
*** Reached end of trace: (5, "/home/harshraj/COALESCE-Hashed-Perceptron-Cache-Replacement-Policy/simulator/traces/ocean_8t/ocean5.champsimtrace")
*** Reached end of trace: (4, "/home/harshraj/COALESCE-Hashed-Perceptron-Cache-Replacement-Policy/simulator/traces/ocean_8t/ocean4.champsimtrace")
*** Reached end of trace: (12, "/home/harshraj/COALESCE-Hashed-Perceptron-Cache-Replacement-Policy/simulator/traces/ocean_8t/ocean4.champsimtrace")
*** Reached end of trace: (14, "/home/harshraj/COALESCE-Hashed-Perceptron-Cache-Replacement-Policy/simulator/traces/ocean_8t/ocean6.champsimtrace")
*** Reached end of trace: (6, "/home/harshraj/COALESCE-Hashed-Perceptron-Cache-Replacement-Policy/simulator/traces/ocean_8t/ocean6.champsimtrace")
*** Reached end of trace: (11, "/home/harshraj/COALESCE-Hashed-Perceptron-Cache-Replacement-Policy/simulator/traces/ocean_8t/ocean3.champsimtrace")
*** Reached end of trace: (3, "/home/harshraj/COALESCE-Hashed-Perceptron-Cache-Replacement-Policy/simulator/traces/ocean_8t/ocean3.champsimtrace")
*** Reached end of trace: (7, "/home/harshraj/COALESCE-Hashed-Perceptron-Cache-Replacement-Policy/simulator/traces/ocean_8t/ocean7.champsimtrace")
*** Reached end of trace: (15, "/home/harshraj/COALESCE-Hashed-Perceptron-Cache-Replacement-Policy/simulator/traces/ocean_8t/ocean7.champsimtrace")
Heartbeat CPU 1 instructions: 160000018 cycles: 69293916 heartbeat IPC: 2.429 cumulative IPC: 2.309 (Simulation time: 07 hr 55 min 51 sec)
Heartbeat CPU 9 instructions: 160000022 cycles: 69293923 heartbeat IPC: 2.429 cumulative IPC: 2.309 (Simulation time: 07 hr 55 min 51 sec)
Heartbeat CPU 4 instructions: 280000006 cycles: 70010914 heartbeat IPC: 4 cumulative IPC: 3.999 (Simulation time: 08 hr 01 min 24 sec)
Heartbeat CPU 11 instructions: 280000008 cycles: 70010995 heartbeat IPC: 4 cumulative IPC: 3.999 (Simulation time: 08 hr 01 min 24 sec)
Heartbeat CPU 3 instructions: 280000008 cycles: 70010996 heartbeat IPC: 4 cumulative IPC: 3.999 (Simulation time: 08 hr 01 min 24 sec)
Heartbeat CPU 13 instructions: 280000009 cycles: 70010998 heartbeat IPC: 4 cumulative IPC: 3.999 (Simulation time: 08 hr 01 min 24 sec)
Heartbeat CPU 5 instructions: 280000005 cycles: 70011029 heartbeat IPC: 4 cumulative IPC: 3.999 (Simulation time: 08 hr 01 min 24 sec)
Heartbeat CPU 12 instructions: 280000006 cycles: 70011103 heartbeat IPC: 4 cumulative IPC: 3.999 (Simulation time: 08 hr 01 min 24 sec)
Heartbeat CPU 14 instructions: 280000006 cycles: 70011232 heartbeat IPC: 4 cumulative IPC: 3.999 (Simulation time: 08 hr 01 min 24 sec)
Heartbeat CPU 6 instructions: 280000006 cycles: 70011236 heartbeat IPC: 4 cumulative IPC: 3.999 (Simulation time: 08 hr 01 min 24 sec)
Heartbeat CPU 7 instructions: 280000003 cycles: 70011253 heartbeat IPC: 4 cumulative IPC: 3.999 (Simulation time: 08 hr 01 min 24 sec)
Heartbeat CPU 15 instructions: 280000003 cycles: 70011340 heartbeat IPC: 4 cumulative IPC: 3.999 (Simulation time: 08 hr 01 min 24 sec)
Heartbeat CPU 2 instructions: 280000006 cycles: 70012866 heartbeat IPC: 4 cumulative IPC: 3.999 (Simulation time: 08 hr 01 min 25 sec)
Heartbeat CPU 10 instructions: 280000006 cycles: 70013049 heartbeat IPC: 4 cumulative IPC: 3.999 (Simulation time: 08 hr 01 min 25 sec)
Heartbeat CPU 4 instructions: 290000006 cycles: 72510914 heartbeat IPC: 4 cumulative IPC: 3.999 (Simulation time: 08 hr 18 min 34 sec)
Heartbeat CPU 11 instructions: 290000008 cycles: 72510995 heartbeat IPC: 4 cumulative IPC: 3.999 (Simulation time: 08 hr 18 min 34 sec)
Heartbeat CPU 3 instructions: 290000008 cycles: 72510996 heartbeat IPC: 4 cumulative IPC: 3.999 (Simulation time: 08 hr 18 min 34 sec)
Heartbeat CPU 13 instructions: 290000009 cycles: 72510998 heartbeat IPC: 4 cumulative IPC: 3.999 (Simulation time: 08 hr 18 min 34 sec)
Heartbeat CPU 5 instructions: 290000005 cycles: 72511029 heartbeat IPC: 4 cumulative IPC: 3.999 (Simulation time: 08 hr 18 min 34 sec)
Heartbeat CPU 12 instructions: 290000006 cycles: 72511103 heartbeat IPC: 4 cumulative IPC: 3.999 (Simulation time: 08 hr 18 min 34 sec)
Heartbeat CPU 14 instructions: 290000006 cycles: 72511232 heartbeat IPC: 4 cumulative IPC: 3.999 (Simulation time: 08 hr 18 min 34 sec)
Heartbeat CPU 6 instructions: 290000006 cycles: 72511236 heartbeat IPC: 4 cumulative IPC: 3.999 (Simulation time: 08 hr 18 min 34 sec)
Heartbeat CPU 7 instructions: 290000003 cycles: 72511253 heartbeat IPC: 4 cumulative IPC: 3.999 (Simulation time: 08 hr 18 min 34 sec)
Heartbeat CPU 15 instructions: 290000003 cycles: 72511340 heartbeat IPC: 4 cumulative IPC: 3.999 (Simulation time: 08 hr 18 min 34 sec)
Heartbeat CPU 2 instructions: 290000006 cycles: 72512866 heartbeat IPC: 4 cumulative IPC: 3.999 (Simulation time: 08 hr 18 min 35 sec)
Heartbeat CPU 10 instructions: 290000006 cycles: 72513049 heartbeat IPC: 4 cumulative IPC: 3.999 (Simulation time: 08 hr 18 min 35 sec)
Heartbeat CPU 9 instructions: 170000022 cycles: 74864486 heartbeat IPC: 1.795 cumulative IPC: 2.271 (Simulation time: 08 hr 35 min 07 sec)
Heartbeat CPU 1 instructions: 170000018 cycles: 74864487 heartbeat IPC: 1.795 cumulative IPC: 2.271 (Simulation time: 08 hr 35 min 07 sec)
Heartbeat CPU 4 instructions: 300000006 cycles: 75010914 heartbeat IPC: 4 cumulative IPC: 3.999 (Simulation time: 08 hr 35 min 55 sec)
Heartbeat CPU 11 instructions: 300000008 cycles: 75010995 heartbeat IPC: 4 cumulative IPC: 3.999 (Simulation time: 08 hr 35 min 55 sec)
Heartbeat CPU 3 instructions: 300000008 cycles: 75010996 heartbeat IPC: 4 cumulative IPC: 3.999 (Simulation time: 08 hr 35 min 55 sec)
Heartbeat CPU 13 instructions: 300000009 cycles: 75010998 heartbeat IPC: 4 cumulative IPC: 3.999 (Simulation time: 08 hr 35 min 55 sec)
Heartbeat CPU 5 instructions: 300000005 cycles: 75011029 heartbeat IPC: 4 cumulative IPC: 3.999 (Simulation time: 08 hr 35 min 55 sec)
Heartbeat CPU 12 instructions: 300000006 cycles: 75011103 heartbeat IPC: 4 cumulative IPC: 3.999 (Simulation time: 08 hr 35 min 55 sec)
Heartbeat CPU 14 instructions: 300000006 cycles: 75011232 heartbeat IPC: 4 cumulative IPC: 3.999 (Simulation time: 08 hr 35 min 56 sec)
Heartbeat CPU 6 instructions: 300000006 cycles: 75011236 heartbeat IPC: 4 cumulative IPC: 3.999 (Simulation time: 08 hr 35 min 56 sec)
Heartbeat CPU 7 instructions: 300000003 cycles: 75011253 heartbeat IPC: 4 cumulative IPC: 3.999 (Simulation time: 08 hr 35 min 56 sec)
Heartbeat CPU 15 instructions: 300000003 cycles: 75011340 heartbeat IPC: 4 cumulative IPC: 3.999 (Simulation time: 08 hr 35 min 56 sec)
Heartbeat CPU 2 instructions: 300000006 cycles: 75012866 heartbeat IPC: 4 cumulative IPC: 3.999 (Simulation time: 08 hr 35 min 56 sec)
Heartbeat CPU 10 instructions: 300000006 cycles: 75013049 heartbeat IPC: 4 cumulative IPC: 3.999 (Simulation time: 08 hr 35 min 56 sec)
Heartbeat CPU 4 instructions: 310000006 cycles: 77510914 heartbeat IPC: 4 cumulative IPC: 3.999 (Simulation time: 08 hr 52 min 57 sec)
Heartbeat CPU 11 instructions: 310000008 cycles: 77510995 heartbeat IPC: 4 cumulative IPC: 3.999 (Simulation time: 08 hr 52 min 57 sec)
Heartbeat CPU 3 instructions: 310000008 cycles: 77510996 heartbeat IPC: 4 cumulative IPC: 3.999 (Simulation time: 08 hr 52 min 57 sec)
Heartbeat CPU 13 instructions: 310000009 cycles: 77510998 heartbeat IPC: 4 cumulative IPC: 3.999 (Simulation time: 08 hr 52 min 57 sec)
Heartbeat CPU 5 instructions: 310000005 cycles: 77511029 heartbeat IPC: 4 cumulative IPC: 3.999 (Simulation time: 08 hr 52 min 57 sec)
Heartbeat CPU 12 instructions: 310000006 cycles: 77511103 heartbeat IPC: 4 cumulative IPC: 3.999 (Simulation time: 08 hr 52 min 57 sec)
Heartbeat CPU 14 instructions: 310000006 cycles: 77511232 heartbeat IPC: 4 cumulative IPC: 3.999 (Simulation time: 08 hr 52 min 57 sec)
Heartbeat CPU 6 instructions: 310000006 cycles: 77511236 heartbeat IPC: 4 cumulative IPC: 3.999 (Simulation time: 08 hr 52 min 57 sec)
Heartbeat CPU 7 instructions: 310000003 cycles: 77511253 heartbeat IPC: 4 cumulative IPC: 3.999 (Simulation time: 08 hr 52 min 57 sec)
Heartbeat CPU 15 instructions: 310000003 cycles: 77511340 heartbeat IPC: 4 cumulative IPC: 3.999 (Simulation time: 08 hr 52 min 57 sec)
Heartbeat CPU 2 instructions: 310000006 cycles: 77512866 heartbeat IPC: 4 cumulative IPC: 3.999 (Simulation time: 08 hr 52 min 58 sec)
Heartbeat CPU 10 instructions: 310000006 cycles: 77513049 heartbeat IPC: 4 cumulative IPC: 3.999 (Simulation time: 08 hr 52 min 58 sec)
Heartbeat CPU 9 instructions: 180000025 cycles: 78406763 heartbeat IPC: 2.823 cumulative IPC: 2.296 (Simulation time: 08 hr 59 min 45 sec)
Heartbeat CPU 1 instructions: 180000021 cycles: 78406766 heartbeat IPC: 2.823 cumulative IPC: 2.296 (Simulation time: 08 hr 59 min 45 sec)
*** Reached end of trace: (2, "/home/harshraj/COALESCE-Hashed-Perceptron-Cache-Replacement-Policy/simulator/traces/ocean_8t/ocean2.champsimtrace")
*** Reached end of trace: (10, "/home/harshraj/COALESCE-Hashed-Perceptron-Cache-Replacement-Policy/simulator/traces/ocean_8t/ocean2.champsimtrace")
*** Reached end of trace: (9, "/home/harshraj/COALESCE-Hashed-Perceptron-Cache-Replacement-Policy/simulator/traces/ocean_8t/ocean1.champsimtrace")
*** Reached end of trace: (1, "/home/harshraj/COALESCE-Hashed-Perceptron-Cache-Replacement-Policy/simulator/traces/ocean_8t/ocean1.champsimtrace")
*** Reached end of trace: (13, "/home/harshraj/COALESCE-Hashed-Perceptron-Cache-Replacement-Policy/simulator/traces/ocean_8t/ocean5.champsimtrace")
*** Reached end of trace: (5, "/home/harshraj/COALESCE-Hashed-Perceptron-Cache-Replacement-Policy/simulator/traces/ocean_8t/ocean5.champsimtrace")
*** Reached end of trace: (4, "/home/harshraj/COALESCE-Hashed-Perceptron-Cache-Replacement-Policy/simulator/traces/ocean_8t/ocean4.champsimtrace")
*** Reached end of trace: (12, "/home/harshraj/COALESCE-Hashed-Perceptron-Cache-Replacement-Policy/simulator/traces/ocean_8t/ocean4.champsimtrace")
*** Reached end of trace: (14, "/home/harshraj/COALESCE-Hashed-Perceptron-Cache-Replacement-Policy/simulator/traces/ocean_8t/ocean6.champsimtrace")
*** Reached end of trace: (6, "/home/harshraj/COALESCE-Hashed-Perceptron-Cache-Replacement-Policy/simulator/traces/ocean_8t/ocean6.champsimtrace")
*** Reached end of trace: (11, "/home/harshraj/COALESCE-Hashed-Perceptron-Cache-Replacement-Policy/simulator/traces/ocean_8t/ocean3.champsimtrace")
*** Reached end of trace: (3, "/home/harshraj/COALESCE-Hashed-Perceptron-Cache-Replacement-Policy/simulator/traces/ocean_8t/ocean3.champsimtrace")
*** Reached end of trace: (7, "/home/harshraj/COALESCE-Hashed-Perceptron-Cache-Replacement-Policy/simulator/traces/ocean_8t/ocean7.champsimtrace")
*** Reached end of trace: (15, "/home/harshraj/COALESCE-Hashed-Perceptron-Cache-Replacement-Policy/simulator/traces/ocean_8t/ocean7.champsimtrace")
Heartbeat CPU 4 instructions: 320000006 cycles: 80010914 heartbeat IPC: 4 cumulative IPC: 3.999 (Simulation time: 09 hr 11 min 32 sec)
Heartbeat CPU 11 instructions: 320000008 cycles: 80010995 heartbeat IPC: 4 cumulative IPC: 3.999 (Simulation time: 09 hr 11 min 32 sec)
Heartbeat CPU 3 instructions: 320000008 cycles: 80010996 heartbeat IPC: 4 cumulative IPC: 3.999 (Simulation time: 09 hr 11 min 32 sec)
Heartbeat CPU 13 instructions: 320000009 cycles: 80010998 heartbeat IPC: 4 cumulative IPC: 3.999 (Simulation time: 09 hr 11 min 32 sec)
Heartbeat CPU 5 instructions: 320000005 cycles: 80011029 heartbeat IPC: 4 cumulative IPC: 3.999 (Simulation time: 09 hr 11 min 32 sec)
Heartbeat CPU 12 instructions: 320000006 cycles: 80011103 heartbeat IPC: 4 cumulative IPC: 3.999 (Simulation time: 09 hr 11 min 32 sec)
Heartbeat CPU 14 instructions: 320000006 cycles: 80011232 heartbeat IPC: 4 cumulative IPC: 3.999 (Simulation time: 09 hr 11 min 32 sec)
Heartbeat CPU 6 instructions: 320000006 cycles: 80011236 heartbeat IPC: 4 cumulative IPC: 3.999 (Simulation time: 09 hr 11 min 32 sec)
Heartbeat CPU 7 instructions: 320000003 cycles: 80011253 heartbeat IPC: 4 cumulative IPC: 3.999 (Simulation time: 09 hr 11 min 32 sec)
Heartbeat CPU 15 instructions: 320000003 cycles: 80011340 heartbeat IPC: 4 cumulative IPC: 3.999 (Simulation time: 09 hr 11 min 32 sec)
Heartbeat CPU 2 instructions: 320000006 cycles: 80012866 heartbeat IPC: 4 cumulative IPC: 3.999 (Simulation time: 09 hr 11 min 32 sec)
Heartbeat CPU 10 instructions: 320000006 cycles: 80013049 heartbeat IPC: 4 cumulative IPC: 3.999 (Simulation time: 09 hr 11 min 32 sec)
Heartbeat CPU 1 instructions: 190000024 cycles: 82410598 heartbeat IPC: 2.498 cumulative IPC: 2.306 (Simulation time: 09 hr 29 min 05 sec)
Heartbeat CPU 9 instructions: 190000028 cycles: 82413195 heartbeat IPC: 2.496 cumulative IPC: 2.305 (Simulation time: 09 hr 29 min 06 sec)
Heartbeat CPU 4 instructions: 330000006 cycles: 82510914 heartbeat IPC: 4 cumulative IPC: 3.999 (Simulation time: 09 hr 29 min 49 sec)
Heartbeat CPU 11 instructions: 330000008 cycles: 82510995 heartbeat IPC: 4 cumulative IPC: 3.999 (Simulation time: 09 hr 29 min 49 sec)
Heartbeat CPU 3 instructions: 330000008 cycles: 82510996 heartbeat IPC: 4 cumulative IPC: 3.999 (Simulation time: 09 hr 29 min 49 sec)
Heartbeat CPU 13 instructions: 330000009 cycles: 82510998 heartbeat IPC: 4 cumulative IPC: 3.999 (Simulation time: 09 hr 29 min 49 sec)
Heartbeat CPU 5 instructions: 330000005 cycles: 82511029 heartbeat IPC: 4 cumulative IPC: 3.999 (Simulation time: 09 hr 29 min 49 sec)
Heartbeat CPU 12 instructions: 330000006 cycles: 82511103 heartbeat IPC: 4 cumulative IPC: 3.999 (Simulation time: 09 hr 29 min 49 sec)
Heartbeat CPU 14 instructions: 330000006 cycles: 82511232 heartbeat IPC: 4 cumulative IPC: 3.999 (Simulation time: 09 hr 29 min 49 sec)
Heartbeat CPU 6 instructions: 330000006 cycles: 82511236 heartbeat IPC: 4 cumulative IPC: 3.999 (Simulation time: 09 hr 29 min 49 sec)
Heartbeat CPU 7 instructions: 330000003 cycles: 82511253 heartbeat IPC: 4 cumulative IPC: 3.999 (Simulation time: 09 hr 29 min 49 sec)
Heartbeat CPU 15 instructions: 330000003 cycles: 82511340 heartbeat IPC: 4 cumulative IPC: 3.999 (Simulation time: 09 hr 29 min 49 sec)
Heartbeat CPU 2 instructions: 330000006 cycles: 82512866 heartbeat IPC: 4 cumulative IPC: 3.999 (Simulation time: 09 hr 29 min 50 sec)
Heartbeat CPU 10 instructions: 330000006 cycles: 82513049 heartbeat IPC: 4 cumulative IPC: 3.999 (Simulation time: 09 hr 29 min 50 sec)
Heartbeat CPU 8 instructions: 40000006 cycles: 84275738 heartbeat IPC: 0.4456 cumulative IPC: 0.4746 (Simulation time: 09 hr 41 min 59 sec)
Heartbeat CPU 0 instructions: 40000006 cycles: 84347961 heartbeat IPC: 0.4448 cumulative IPC: 0.4742 (Simulation time: 09 hr 42 min 30 sec)
Heartbeat CPU 4 instructions: 340000006 cycles: 85010914 heartbeat IPC: 4 cumulative IPC: 3.999 (Simulation time: 09 hr 47 min 05 sec)
Heartbeat CPU 11 instructions: 340000008 cycles: 85010995 heartbeat IPC: 4 cumulative IPC: 3.999 (Simulation time: 09 hr 47 min 05 sec)
Heartbeat CPU 3 instructions: 340000008 cycles: 85010996 heartbeat IPC: 4 cumulative IPC: 3.999 (Simulation time: 09 hr 47 min 05 sec)
Heartbeat CPU 13 instructions: 340000009 cycles: 85010998 heartbeat IPC: 4 cumulative IPC: 3.999 (Simulation time: 09 hr 47 min 05 sec)
Heartbeat CPU 5 instructions: 340000005 cycles: 85011029 heartbeat IPC: 4 cumulative IPC: 3.999 (Simulation time: 09 hr 47 min 05 sec)
Heartbeat CPU 12 instructions: 340000006 cycles: 85011103 heartbeat IPC: 4 cumulative IPC: 3.999 (Simulation time: 09 hr 47 min 05 sec)
Heartbeat CPU 14 instructions: 340000006 cycles: 85011232 heartbeat IPC: 4 cumulative IPC: 3.999 (Simulation time: 09 hr 47 min 05 sec)
Heartbeat CPU 6 instructions: 340000006 cycles: 85011236 heartbeat IPC: 4 cumulative IPC: 3.999 (Simulation time: 09 hr 47 min 05 sec)
Heartbeat CPU 7 instructions: 340000003 cycles: 85011253 heartbeat IPC: 4 cumulative IPC: 3.999 (Simulation time: 09 hr 47 min 05 sec)
Heartbeat CPU 15 instructions: 340000003 cycles: 85011340 heartbeat IPC: 4 cumulative IPC: 3.999 (Simulation time: 09 hr 47 min 05 sec)
Heartbeat CPU 2 instructions: 340000006 cycles: 85012866 heartbeat IPC: 4 cumulative IPC: 3.999 (Simulation time: 09 hr 47 min 05 sec)
Heartbeat CPU 10 instructions: 340000006 cycles: 85013049 heartbeat IPC: 4 cumulative IPC: 3.999 (Simulation time: 09 hr 47 min 05 sec)
Heartbeat CPU 9 instructions: 200000029 cycles: 86502638 heartbeat IPC: 2.445 cumulative IPC: 2.312 (Simulation time: 09 hr 56 min 23 sec)
Heartbeat CPU 1 instructions: 200000024 cycles: 86502639 heartbeat IPC: 2.444 cumulative IPC: 2.312 (Simulation time: 09 hr 56 min 23 sec)
Heartbeat CPU 4 instructions: 350000006 cycles: 87510914 heartbeat IPC: 4 cumulative IPC: 4 (Simulation time: 10 hr 03 min 41 sec)
Heartbeat CPU 11 instructions: 350000008 cycles: 87510995 heartbeat IPC: 4 cumulative IPC: 3.999 (Simulation time: 10 hr 03 min 41 sec)
Heartbeat CPU 3 instructions: 350000008 cycles: 87510996 heartbeat IPC: 4 cumulative IPC: 3.999 (Simulation time: 10 hr 03 min 41 sec)
Heartbeat CPU 13 instructions: 350000009 cycles: 87510998 heartbeat IPC: 4 cumulative IPC: 3.999 (Simulation time: 10 hr 03 min 41 sec)
Heartbeat CPU 5 instructions: 350000005 cycles: 87511029 heartbeat IPC: 4 cumulative IPC: 3.999 (Simulation time: 10 hr 03 min 41 sec)
Heartbeat CPU 12 instructions: 350000006 cycles: 87511103 heartbeat IPC: 4 cumulative IPC: 3.999 (Simulation time: 10 hr 03 min 41 sec)
Heartbeat CPU 14 instructions: 350000006 cycles: 87511232 heartbeat IPC: 4 cumulative IPC: 3.999 (Simulation time: 10 hr 03 min 41 sec)
Heartbeat CPU 6 instructions: 350000006 cycles: 87511236 heartbeat IPC: 4 cumulative IPC: 3.999 (Simulation time: 10 hr 03 min 41 sec)
Heartbeat CPU 7 instructions: 350000003 cycles: 87511253 heartbeat IPC: 4 cumulative IPC: 3.999 (Simulation time: 10 hr 03 min 41 sec)
Heartbeat CPU 15 instructions: 350000003 cycles: 87511340 heartbeat IPC: 4 cumulative IPC: 3.999 (Simulation time: 10 hr 03 min 41 sec)
Heartbeat CPU 2 instructions: 350000006 cycles: 87512866 heartbeat IPC: 4 cumulative IPC: 3.999 (Simulation time: 10 hr 03 min 42 sec)
Heartbeat CPU 10 instructions: 350000006 cycles: 87513049 heartbeat IPC: 4 cumulative IPC: 3.999 (Simulation time: 10 hr 03 min 42 sec)
Heartbeat CPU 4 instructions: 360000006 cycles: 90010914 heartbeat IPC: 4 cumulative IPC: 4 (Simulation time: 10 hr 21 min 05 sec)
Heartbeat CPU 11 instructions: 360000008 cycles: 90010995 heartbeat IPC: 4 cumulative IPC: 4 (Simulation time: 10 hr 21 min 05 sec)
Heartbeat CPU 3 instructions: 360000008 cycles: 90010996 heartbeat IPC: 4 cumulative IPC: 4 (Simulation time: 10 hr 21 min 05 sec)
Heartbeat CPU 13 instructions: 360000009 cycles: 90010998 heartbeat IPC: 4 cumulative IPC: 4 (Simulation time: 10 hr 21 min 05 sec)
Heartbeat CPU 5 instructions: 360000005 cycles: 90011029 heartbeat IPC: 4 cumulative IPC: 4 (Simulation time: 10 hr 21 min 05 sec)
Heartbeat CPU 12 instructions: 360000006 cycles: 90011103 heartbeat IPC: 4 cumulative IPC: 4 (Simulation time: 10 hr 21 min 05 sec)
[...]
cpu12->cpu12_STLB LOAD         ACCESS:        725 HIT:        725 MISS:          0 MSHR_MERGE:          0
cpu12->cpu12_STLB RFO          ACCESS:          0 HIT:          0 MISS:          0 MSHR_MERGE:          0
cpu12->cpu12_STLB PREFETCH     ACCESS:          0 HIT:          0 MISS:          0 MSHR_MERGE:          0
cpu12->cpu12_STLB WRITE        ACCESS:          0 HIT:          0 MISS:          0 MSHR_MERGE:          0
cpu12->cpu12_STLB TRANSLATION  ACCESS:          0 HIT:          0 MISS:          0 MSHR_MERGE:          0
cpu12->cpu12_STLB PREFETCH REQUESTED:          0 ISSUED:          0 USEFUL:          0 USELESS:          0
cpu12->cpu12_STLB AVERAGE MISS LATENCY: - cycles
cpu12_STLB COHERENCE INVALIDATIONS:          0
cpu12_STLB COHERENCE WRITE-HIT OTHER-SHARER EVENTS:          0
cpu12->cpu12_L2C TOTAL        ACCESS:      39295 HIT:      39295 MISS:          0 MSHR_MERGE:          0
cpu12->cpu12_L2C LOAD         ACCESS:      39295 HIT:      39295 MISS:          0 MSHR_MERGE:          0
cpu12->cpu12_L2C RFO          ACCESS:          0 HIT:          0 MISS:          0 MSHR_MERGE:          0
cpu12->cpu12_L2C PREFETCH     ACCESS:          0 HIT:          0 MISS:          0 MSHR_MERGE:          0
cpu12->cpu12_L2C WRITE        ACCESS:          0 HIT:          0 MISS:          0 MSHR_MERGE:          0
cpu12->cpu12_L2C TRANSLATION  ACCESS:          0 HIT:          0 MISS:          0 MSHR_MERGE:          0
cpu12->cpu12_L2C PREFETCH REQUESTED:          0 ISSUED:          0 USEFUL:          0 USELESS:          0
cpu12->cpu12_L2C AVERAGE MISS LATENCY: - cycles
cpu12_L2C COHERENCE INVALIDATIONS:          0
cpu12_L2C COHERENCE WRITE-HIT OTHER-SHARER EVENTS:          0
cpu12->cpu12_L1I TOTAL        ACCESS:  367611756 HIT:  367549030 MISS:      62726 MSHR_MERGE:      23431
cpu12->cpu12_L1I LOAD         ACCESS:  367611756 HIT:  367549030 MISS:      62726 MSHR_MERGE:      23431
cpu12->cpu12_L1I RFO          ACCESS:          0 HIT:          0 MISS:          0 MSHR_MERGE:          0
cpu12->cpu12_L1I PREFETCH     ACCESS:          0 HIT:          0 MISS:          0 MSHR_MERGE:          0
cpu12->cpu12_L1I WRITE        ACCESS:          0 HIT:          0 MISS:          0 MSHR_MERGE:          0
cpu12->cpu12_L1I TRANSLATION  ACCESS:          0 HIT:          0 MISS:          0 MSHR_MERGE:          0
cpu12->cpu12_L1I PREFETCH REQUESTED:          0 ISSUED:          0 USEFUL:          0 USELESS:          0
cpu12->cpu12_L1I AVERAGE MISS LATENCY: 7.2 cycles
cpu12_L1I COHERENCE INVALIDATIONS:          0
cpu12_L1I COHERENCE WRITE-HIT OTHER-SHARER EVENTS:          0
cpu12_L1D COHERENCE INVALIDATIONS:          0
cpu12_L1D COHERENCE WRITE-HIT OTHER-SHARER EVENTS:          0
cpu12->cpu12_ITLB TOTAL        ACCESS:  290623865 HIT:  290622366 MISS:       1499 MSHR_MERGE:        774
cpu12->cpu12_ITLB LOAD         ACCESS:  290623865 HIT:  290622366 MISS:       1499 MSHR_MERGE:        774
cpu12->cpu12_ITLB RFO          ACCESS:          0 HIT:          0 MISS:          0 MSHR_MERGE:          0
cpu12->cpu12_ITLB PREFETCH     ACCESS:          0 HIT:          0 MISS:          0 MSHR_MERGE:          0
cpu12->cpu12_ITLB WRITE        ACCESS:          0 HIT:          0 MISS:          0 MSHR_MERGE:          0
cpu12->cpu12_ITLB TRANSLATION  ACCESS:          0 HIT:          0 MISS:          0 MSHR_MERGE:          0
cpu12->cpu12_ITLB PREFETCH REQUESTED:          0 ISSUED:          0 USEFUL:          0 USELESS:          0
cpu12->cpu12_ITLB AVERAGE MISS LATENCY: 4 cycles
cpu12_ITLB COHERENCE INVALIDATIONS:          0
cpu12_ITLB COHERENCE WRITE-HIT OTHER-SHARER EVENTS:          0
cpu12_DTLB COHERENCE INVALIDATIONS:          0
cpu12_DTLB COHERENCE WRITE-HIT OTHER-SHARER EVENTS:          0
cpu11->cpu11_STLB TOTAL        ACCESS:        816 HIT:        816 MISS:          0 MSHR_MERGE:          0
cpu11->cpu11_STLB LOAD         ACCESS:        816 HIT:        816 MISS:          0 MSHR_MERGE:          0
cpu11->cpu11_STLB RFO          ACCESS:          0 HIT:          0 MISS:          0 MSHR_MERGE:          0
cpu11->cpu11_STLB PREFETCH     ACCESS:          0 HIT:          0 MISS:          0 MSHR_MERGE:          0
cpu11->cpu11_STLB WRITE        ACCESS:          0 HIT:          0 MISS:          0 MSHR_MERGE:          0
cpu11->cpu11_STLB TRANSLATION  ACCESS:          0 HIT:          0 MISS:          0 MSHR_MERGE:          0
cpu11->cpu11_STLB PREFETCH REQUESTED:          0 ISSUED:          0 USEFUL:          0 USELESS:          0
cpu11->cpu11_STLB AVERAGE MISS LATENCY: - cycles
cpu11_STLB COHERENCE INVALIDATIONS:          0
cpu11_STLB COHERENCE WRITE-HIT OTHER-SHARER EVENTS:          0
cpu11->cpu11_L2C TOTAL        ACCESS:      80528 HIT:      80528 MISS:          0 MSHR_MERGE:          0
cpu11->cpu11_L2C LOAD         ACCESS:      80528 HIT:      80528 MISS:          0 MSHR_MERGE:          0
cpu11->cpu11_L2C RFO          ACCESS:          0 HIT:          0 MISS:          0 MSHR_MERGE:          0
cpu11->cpu11_L2C PREFETCH     ACCESS:          0 HIT:          0 MISS:          0 MSHR_MERGE:          0
cpu11->cpu11_L2C WRITE        ACCESS:          0 HIT:          0 MISS:          0 MSHR_MERGE:          0
cpu11->cpu11_L2C TRANSLATION  ACCESS:          0 HIT:          0 MISS:          0 MSHR_MERGE:          0
cpu11->cpu11_L2C PREFETCH REQUESTED:          0 ISSUED:          0 USEFUL:          0 USELESS:          0
cpu11->cpu11_L2C AVERAGE MISS LATENCY: - cycles
cpu11_L2C COHERENCE INVALIDATIONS:          0
cpu11_L2C COHERENCE WRITE-HIT OTHER-SHARER EVENTS:          0
cpu11->cpu11_L1I TOTAL        ACCESS:  367086808 HIT:  366966032 MISS:     120776 MSHR_MERGE:      40248
cpu11->cpu11_L1I LOAD         ACCESS:  367086808 HIT:  366966032 MISS:     120776 MSHR_MERGE:      40248
cpu11->cpu11_L1I RFO          ACCESS:          0 HIT:          0 MISS:          0 MSHR_MERGE:          0
cpu11->cpu11_L1I PREFETCH     ACCESS:          0 HIT:          0 MISS:          0 MSHR_MERGE:          0
cpu11->cpu11_L1I WRITE        ACCESS:          0 HIT:          0 MISS:          0 MSHR_MERGE:          0
cpu11->cpu11_L1I TRANSLATION  ACCESS:          0 HIT:          0 MISS:          0 MSHR_MERGE:          0
cpu11->cpu11_L1I PREFETCH REQUESTED:          0 ISSUED:          0 USEFUL:          0 USELESS:          0
cpu11->cpu11_L1I AVERAGE MISS LATENCY: 7 cycles
cpu11_L1I COHERENCE INVALIDATIONS:          0
cpu11_L1I COHERENCE WRITE-HIT OTHER-SHARER EVENTS:          0
cpu11_L1D COHERENCE INVALIDATIONS:          0
cpu11_L1D COHERENCE WRITE-HIT OTHER-SHARER EVENTS:          0
cpu11->cpu11_ITLB TOTAL        ACCESS:  290702380 HIT:  290700850 MISS:       1530 MSHR_MERGE:        714
cpu11->cpu11_ITLB LOAD         ACCESS:  290702380 HIT:  290700850 MISS:       1530 MSHR_MERGE:        714
cpu11->cpu11_ITLB RFO          ACCESS:          0 HIT:          0 MISS:          0 MSHR_MERGE:          0
cpu11->cpu11_ITLB PREFETCH     ACCESS:          0 HIT:          0 MISS:          0 MSHR_MERGE:          0
cpu11->cpu11_ITLB WRITE        ACCESS:          0 HIT:          0 MISS:          0 MSHR_MERGE:          0
cpu11->cpu11_ITLB TRANSLATION  ACCESS:          0 HIT:          0 MISS:          0 MSHR_MERGE:          0
cpu11->cpu11_ITLB PREFETCH REQUESTED:          0 ISSUED:          0 USEFUL:          0 USELESS:          0
cpu11->cpu11_ITLB AVERAGE MISS LATENCY: 4 cycles
cpu11_ITLB COHERENCE INVALIDATIONS:          0
cpu11_ITLB COHERENCE WRITE-HIT OTHER-SHARER EVENTS:          0
cpu11_DTLB COHERENCE INVALIDATIONS:          0
cpu11_DTLB COHERENCE WRITE-HIT OTHER-SHARER EVENTS:          0
cpu10->cpu10_STLB TOTAL        ACCESS:        828 HIT:        828 MISS:          0 MSHR_MERGE:          0
cpu10->cpu10_STLB LOAD         ACCESS:        828 HIT:        828 MISS:          0 MSHR_MERGE:          0
cpu10->cpu10_STLB RFO          ACCESS:          0 HIT:          0 MISS:          0 MSHR_MERGE:          0
cpu10->cpu10_STLB PREFETCH     ACCESS:          0 HIT:          0 MISS:          0 MSHR_MERGE:          0
cpu10->cpu10_STLB WRITE        ACCESS:          0 HIT:          0 MISS:          0 MSHR_MERGE:          0
cpu10->cpu10_STLB TRANSLATION  ACCESS:          0 HIT:          0 MISS:          0 MSHR_MERGE:          0
cpu10->cpu10_STLB PREFETCH REQUESTED:          0 ISSUED:          0 USEFUL:          0 USELESS:          0
cpu10->cpu10_STLB AVERAGE MISS LATENCY: - cycles
cpu10_STLB COHERENCE INVALIDATIONS:          0
cpu10_STLB COHERENCE WRITE-HIT OTHER-SHARER EVENTS:          0
cpu10->cpu10_L2C TOTAL        ACCESS:      85521 HIT:      85521 MISS:          0 MSHR_MERGE:          0
cpu10->cpu10_L2C LOAD         ACCESS:      85521 HIT:      85521 MISS:          0 MSHR_MERGE:          0
cpu10->cpu10_L2C RFO          ACCESS:          0 HIT:          0 MISS:          0 MSHR_MERGE:          0
cpu10->cpu10_L2C PREFETCH     ACCESS:          0 HIT:          0 MISS:          0 MSHR_MERGE:          0
cpu10->cpu10_L2C WRITE        ACCESS:          0 HIT:          0 MISS:          0 MSHR_MERGE:          0
cpu10->cpu10_L2C TRANSLATION  ACCESS:          0 HIT:          0 MISS:          0 MSHR_MERGE:          0
cpu10->cpu10_L2C PREFETCH REQUESTED:          0 ISSUED:          0 USEFUL:          0 USELESS:          0
cpu10->cpu10_L2C AVERAGE MISS LATENCY: - cycles
cpu10_L2C COHERENCE INVALIDATIONS:          0
cpu10_L2C COHERENCE WRITE-HIT OTHER-SHARER EVENTS:          0
cpu10->cpu10_L1I TOTAL        ACCESS:  367778757 HIT:  367649374 MISS:     129383 MSHR_MERGE:      43862
cpu10->cpu10_L1I LOAD         ACCESS:  367778757 HIT:  367649374 MISS:     129383 MSHR_MERGE:      43862
cpu10->cpu10_L1I RFO          ACCESS:          0 HIT:          0 MISS:          0 MSHR_MERGE:          0
cpu10->cpu10_L1I PREFETCH     ACCESS:          0 HIT:          0 MISS:          0 MSHR_MERGE:          0
cpu10->cpu10_L1I WRITE        ACCESS:          0 HIT:          0 MISS:          0 MSHR_MERGE:          0
cpu10->cpu10_L1I TRANSLATION  ACCESS:          0 HIT:          0 MISS:          0 MSHR_MERGE:          0
cpu10->cpu10_L1I PREFETCH REQUESTED:          0 ISSUED:          0 USEFUL:          0 USELESS:          0
cpu10->cpu10_L1I AVERAGE MISS LATENCY: 7 cycles
cpu10_L1I COHERENCE INVALIDATIONS:          0
cpu10_L1I COHERENCE WRITE-HIT OTHER-SHARER EVENTS:          0
cpu10_L1D COHERENCE INVALIDATIONS:          0
cpu10_L1D COHERENCE WRITE-HIT OTHER-SHARER EVENTS:          0
cpu10->cpu10_ITLB TOTAL        ACCESS:  290583662 HIT:  290582161 MISS:       1501 MSHR_MERGE:        673
cpu10->cpu10_ITLB LOAD         ACCESS:  290583662 HIT:  290582161 MISS:       1501 MSHR_MERGE:        673
cpu10->cpu10_ITLB RFO          ACCESS:          0 HIT:          0 MISS:          0 MSHR_MERGE:          0
cpu10->cpu10_ITLB PREFETCH     ACCESS:          0 HIT:          0 MISS:          0 MSHR_MERGE:          0
cpu10->cpu10_ITLB WRITE        ACCESS:          0 HIT:          0 MISS:          0 MSHR_MERGE:          0
cpu10->cpu10_ITLB TRANSLATION  ACCESS:          0 HIT:          0 MISS:          0 MSHR_MERGE:          0
cpu10->cpu10_ITLB PREFETCH REQUESTED:          0 ISSUED:          0 USEFUL:          0 USELESS:          0
cpu10->cpu10_ITLB AVERAGE MISS LATENCY: 4 cycles
cpu10_ITLB COHERENCE INVALIDATIONS:          0
cpu10_ITLB COHERENCE WRITE-HIT OTHER-SHARER EVENTS:          0
cpu10_DTLB COHERENCE INVALIDATIONS:          0
cpu10_DTLB COHERENCE WRITE-HIT OTHER-SHARER EVENTS:          0
cpu0->cpu0_STLB TOTAL        ACCESS:    4688574 HIT:    4540777 MISS:     147797 MSHR_MERGE:          0
cpu0->cpu0_STLB LOAD         ACCESS:    4688574 HIT:    4540777 MISS:     147797 MSHR_MERGE:          0
cpu0->cpu0_STLB RFO          ACCESS:          0 HIT:          0 MISS:          0 MSHR_MERGE:          0
cpu0->cpu0_STLB PREFETCH     ACCESS:          0 HIT:          0 MISS:          0 MSHR_MERGE:          0
cpu0->cpu0_STLB WRITE        ACCESS:          0 HIT:          0 MISS:          0 MSHR_MERGE:          0
cpu0->cpu0_STLB TRANSLATION  ACCESS:          0 HIT:          0 MISS:          0 MSHR_MERGE:          0
cpu0->cpu0_STLB PREFETCH REQUESTED:          0 ISSUED:          0 USEFUL:          0 USELESS:          0
cpu0->cpu0_STLB AVERAGE MISS LATENCY: 668.7 cycles
cpu0_STLB COHERENCE INVALIDATIONS:          0
cpu0_STLB COHERENCE WRITE-HIT OTHER-SHARER EVENTS:          0
cpu0->cpu0_L2C TOTAL        ACCESS:   32569364 HIT:   14785300 MISS:   17784064 MSHR_MERGE:          0
cpu0->cpu0_L2C LOAD         ACCESS:   21222693 HIT:    6653068 MISS:   14569625 MSHR_MERGE:          0
cpu0->cpu0_L2C RFO          ACCESS:    3493084 HIT:     511846 MISS:    2981238 MSHR_MERGE:          0
cpu0->cpu0_L2C PREFETCH     ACCESS:          0 HIT:          0 MISS:          0 MSHR_MERGE:          0
cpu0->cpu0_L2C WRITE        ACCESS:    7580968 HIT:    7580467 MISS:        501 MSHR_MERGE:          0
cpu0->cpu0_L2C TRANSLATION  ACCESS:     272619 HIT:      39919 MISS:     232700 MSHR_MERGE:          0
cpu0->cpu0_L2C PREFETCH REQUESTED:          0 ISSUED:          0 USEFUL:          0 USELESS:          0
cpu0->cpu0_L2C AVERAGE MISS LATENCY: 180.6 cycles
cpu0_L2C COHERENCE INVALIDATIONS:          0
cpu0_L2C COHERENCE WRITE-HIT OTHER-SHARER EVENTS:          0
cpu0->cpu0_L1I TOTAL        ACCESS:   31297399 HIT:   31285273 MISS:      12126 MSHR_MERGE:       5898
cpu0->cpu0_L1I LOAD         ACCESS:   31297399 HIT:   31285273 MISS:      12126 MSHR_MERGE:       5898
cpu0->cpu0_L1I RFO          ACCESS:          0 HIT:          0 MISS:          0 MSHR_MERGE:          0
cpu0->cpu0_L1I PREFETCH     ACCESS:          0 HIT:          0 MISS:          0 MSHR_MERGE:          0
cpu0->cpu0_L1I WRITE        ACCESS:          0 HIT:          0 MISS:          0 MSHR_MERGE:          0
cpu0->cpu0_L1I TRANSLATION  ACCESS:          0 HIT:          0 MISS:          0 MSHR_MERGE:          0
cpu0->cpu0_L1I PREFETCH REQUESTED:          0 ISSUED:          0 USEFUL:          0 USELESS:          0
cpu0->cpu0_L1I AVERAGE MISS LATENCY: 299.8 cycles
cpu0_L1I COHERENCE INVALIDATIONS:          0
cpu0_L1I COHERENCE WRITE-HIT OTHER-SHARER EVENTS:          0
cpu0->cpu0_L1D TOTAL        ACCESS:  103007072 HIT:   74447385 MISS:   28559687 MSHR_MERGE:    3575767
cpu0->cpu0_L1D LOAD         ACCESS:   44344137 HIT:   22317809 MISS:   22026328 MSHR_MERGE:     809578
cpu0->cpu0_L1D RFO          ACCESS:          0 HIT:          0 MISS:          0 MSHR_MERGE:          0
cpu0->cpu0_L1D PREFETCH     ACCESS:          0 HIT:          0 MISS:          0 MSHR_MERGE:          0
cpu0->cpu0_L1D WRITE        ACCESS:   58362185 HIT:   52107562 MISS:    6254623 MSHR_MERGE:    2760072
cpu0->cpu0_L1D TRANSLATION  ACCESS:     300750 HIT:      22014 MISS:     278736 MSHR_MERGE:       6117
cpu0->cpu0_L1D PREFETCH REQUESTED:          0 ISSUED:          0 USEFUL:          0 USELESS:          0
cpu0->cpu0_L1D AVERAGE MISS LATENCY: 136.2 cycles
cpu0_L1D COHERENCE INVALIDATIONS:          0
cpu0_L1D COHERENCE WRITE-HIT OTHER-SHARER EVENTS:          0
cpu0->cpu0_ITLB TOTAL        ACCESS:   30104822 HIT:   30103766 MISS:       1056 MSHR_MERGE:        707
cpu0->cpu0_ITLB LOAD         ACCESS:   30104822 HIT:   30103766 MISS:       1056 MSHR_MERGE:        707
cpu0->cpu0_ITLB RFO          ACCESS:          0 HIT:          0 MISS:          0 MSHR_MERGE:          0
cpu0->cpu0_ITLB PREFETCH     ACCESS:          0 HIT:          0 MISS:          0 MSHR_MERGE:          0
cpu0->cpu0_ITLB WRITE        ACCESS:          0 HIT:          0 MISS:          0 MSHR_MERGE:          0
cpu0->cpu0_ITLB TRANSLATION  ACCESS:          0 HIT:          0 MISS:          0 MSHR_MERGE:          0
cpu0->cpu0_ITLB PREFETCH REQUESTED:          0 ISSUED:          0 USEFUL:          0 USELESS:          0
cpu0->cpu0_ITLB AVERAGE MISS LATENCY: 563.7 cycles
cpu0_ITLB COHERENCE INVALIDATIONS:          0
cpu0_ITLB COHERENCE WRITE-HIT OTHER-SHARER EVENTS:          0
cpu0->cpu0_DTLB TOTAL        ACCESS:   99404203 HIT:   94511281 MISS:    4892922 MSHR_MERGE:     204697
cpu0->cpu0_DTLB LOAD         ACCESS:   99404203 HIT:   94511281 MISS:    4892922 MSHR_MERGE:     204697
cpu0->cpu0_DTLB RFO          ACCESS:          0 HIT:          0 MISS:          0 MSHR_MERGE:          0
cpu0->cpu0_DTLB PREFETCH     ACCESS:          0 HIT:          0 MISS:          0 MSHR_MERGE:          0
cpu0->cpu0_DTLB WRITE        ACCESS:          0 HIT:          0 MISS:          0 MSHR_MERGE:          0
cpu0->cpu0_DTLB TRANSLATION  ACCESS:          0 HIT:          0 MISS:          0 MSHR_MERGE:          0
cpu0->cpu0_DTLB PREFETCH REQUESTED:          0 ISSUED:          0 USEFUL:          0 USELESS:          0
cpu0->cpu0_DTLB AVERAGE MISS LATENCY: 25.07 cycles
cpu0_DTLB COHERENCE INVALIDATIONS:          0
cpu0_DTLB COHERENCE WRITE-HIT OTHER-SHARER EVENTS:          0
cpu0->LLC TOTAL        ACCESS:   24243392 HIT:   14729317 MISS:    9514075 MSHR_MERGE:    4854581
cpu0->LLC LOAD         ACCESS:   14569603 HIT:    7696027 MISS:    6873576 MSHR_MERGE:    3558503
cpu0->LLC RFO          ACCESS:    2981237 HIT:     632765 MISS:    2348472 MSHR_MERGE:    1296078
cpu0->LLC PREFETCH     ACCESS:          0 HIT:          0 MISS:          0 MSHR_MERGE:          0
cpu0->LLC WRITE        ACCESS:    6459852 HIT:    6396383 MISS:      63469 MSHR_MERGE:          0
cpu0->LLC TRANSLATION  ACCESS:     232700 HIT:       4142 MISS:     228558 MSHR_MERGE:          0
cpu0->LLC PREFETCH REQUESTED:          0 ISSUED:          0 USEFUL:          0 USELESS:          0
cpu0->LLC AVERAGE MISS LATENCY: 902.8 cycles
cpu1->LLC TOTAL        ACCESS:    7403182 HIT:    2224713 MISS:    5178469 MSHR_MERGE:    2518464
cpu1->LLC LOAD         ACCESS:    7356308 HIT:    2224710 MISS:    5131598 MSHR_MERGE:    2518464
cpu1->LLC RFO          ACCESS:          0 HIT:          0 MISS:          0 MSHR_MERGE:          0
cpu1->LLC PREFETCH     ACCESS:          0 HIT:          0 MISS:          0 MSHR_MERGE:          0
cpu1->LLC WRITE        ACCESS:          0 HIT:          0 MISS:          0 MSHR_MERGE:          0
cpu1->LLC TRANSLATION  ACCESS:      46874 HIT:          3 MISS:      46871 MSHR_MERGE:          0
cpu1->LLC PREFETCH REQUESTED:          0 ISSUED:          0 USEFUL:          0 USELESS:          0
cpu1->LLC AVERAGE MISS LATENCY: 1819 cycles
cpu8->LLC TOTAL        ACCESS:   24218395 HIT:   14710209 MISS:    9508186 MSHR_MERGE:    4324391
cpu8->LLC LOAD         ACCESS:   14550322 HIT:    7678335 MISS:    6871987 MSHR_MERGE:    3283760
cpu8->LLC RFO          ACCESS:    2981745 HIT:     634117 MISS:    2347628 MSHR_MERGE:    1040631
cpu8->LLC PREFETCH     ACCESS:          0 HIT:          0 MISS:          0 MSHR_MERGE:          0
cpu8->LLC WRITE        ACCESS:    6453502 HIT:    6393701 MISS:      59801 MSHR_MERGE:          0
cpu8->LLC TRANSLATION  ACCESS:     232826 HIT:       4056 MISS:     228770 MSHR_MERGE:          0
cpu8->LLC PREFETCH REQUESTED:          0 ISSUED:          0 USEFUL:          0 USELESS:          0
cpu8->LLC AVERAGE MISS LATENCY: 1007 cycles
cpu9->LLC TOTAL        ACCESS:    7403267 HIT:    2224681 MISS:    5178586 MSHR_MERGE:    2602350
cpu9->LLC LOAD         ACCESS:    7356386 HIT:    2224677 MISS:    5131709 MSHR_MERGE:    2602350
cpu9->LLC RFO          ACCESS:          0 HIT:          0 MISS:          0 MSHR_MERGE:          0
cpu9->LLC PREFETCH     ACCESS:          0 HIT:          0 MISS:          0 MSHR_MERGE:          0
cpu9->LLC WRITE        ACCESS:          0 HIT:          0 MISS:          0 MSHR_MERGE:          0
cpu9->LLC TRANSLATION  ACCESS:      46881 HIT:          4 MISS:      46877 MSHR_MERGE:          0
cpu9->LLC PREFETCH REQUESTED:          0 ISSUED:          0 USEFUL:          0 USELESS:          0
cpu9->LLC AVERAGE MISS LATENCY: 1761 cycles
LLC COHERENCE INVALIDATIONS:   12196074
LLC COHERENCE WRITE-HIT OTHER-SHARER EVENTS:   11161251

DRAM Statistics

Channel 0 RQ ROW_BUFFER_HIT:     346389
  ROW_BUFFER_MISS:   14589033
  AVG DBUS CONGESTED CYCLE: 6.717
Channel 0 WQ ROW_BUFFER_HIT:     406828
  ROW_BUFFER_MISS:    3703589
  FULL:          0
Channel 0 REFRESHES ISSUED:      48760

VMEM ALIASED FILLS (cross-CPU shared-page hits): 383513
