[VMEM] WARNING: physical memory size is smaller than virtual memory size.

*** ChampSim Multicore Out-of-Order Simulator ***
Warmup Instructions: 50000000
Simulation Instructions: 100000000
Number of CPUs: 16
Page size: 4096

Off-chip DRAM Size: 16 GiB Channels: 1 Width: 64-bit Data Rate: 3205 MT/s
Heartbeat CPU 4 instructions: 10000001 cycles: 2508565 heartbeat IPC: 3.986 cumulative IPC: 3.986 (Simulation time: 00 hr 17 min 43 sec)
Heartbeat CPU 13 instructions: 10000003 cycles: 2508663 heartbeat IPC: 3.986 cumulative IPC: 3.986 (Simulation time: 00 hr 17 min 43 sec)
Heartbeat CPU 5 instructions: 10000003 cycles: 2508682 heartbeat IPC: 3.986 cumulative IPC: 3.986 (Simulation time: 00 hr 17 min 43 sec)
Heartbeat CPU 12 instructions: 10000001 cycles: 2508754 heartbeat IPC: 3.986 cumulative IPC: 3.986 (Simulation time: 00 hr 17 min 43 sec)
Heartbeat CPU 11 instructions: 10000001 cycles: 2508794 heartbeat IPC: 3.986 cumulative IPC: 3.986 (Simulation time: 00 hr 17 min 43 sec)
Heartbeat CPU 3 instructions: 10000001 cycles: 2508795 heartbeat IPC: 3.986 cumulative IPC: 3.986 (Simulation time: 00 hr 17 min 43 sec)
Heartbeat CPU 14 instructions: 10000000 cycles: 2509012 heartbeat IPC: 3.986 cumulative IPC: 3.986 (Simulation time: 00 hr 17 min 44 sec)
Heartbeat CPU 6 instructions: 10000002 cycles: 2509013 heartbeat IPC: 3.986 cumulative IPC: 3.986 (Simulation time: 00 hr 17 min 44 sec)
Heartbeat CPU 7 instructions: 10000002 cycles: 2509057 heartbeat IPC: 3.986 cumulative IPC: 3.986 (Simulation time: 00 hr 17 min 44 sec)
Heartbeat CPU 15 instructions: 10000000 cycles: 2509122 heartbeat IPC: 3.985 cumulative IPC: 3.985 (Simulation time: 00 hr 17 min 44 sec)
Heartbeat CPU 2 instructions: 10000003 cycles: 2509620 heartbeat IPC: 3.985 cumulative IPC: 3.985 (Simulation time: 00 hr 17 min 44 sec)
Heartbeat CPU 10 instructions: 10000003 cycles: 2509812 heartbeat IPC: 3.984 cumulative IPC: 3.984 (Simulation time: 00 hr 17 min 44 sec)
Heartbeat CPU 1 instructions: 10000001 cycles: 4577670 heartbeat IPC: 2.185 cumulative IPC: 2.185 (Simulation time: 00 hr 31 min 30 sec)
Heartbeat CPU 9 instructions: 10000001 cycles: 4577814 heartbeat IPC: 2.184 cumulative IPC: 2.184 (Simulation time: 00 hr 31 min 30 sec)
Heartbeat CPU 4 instructions: 20000003 cycles: 5008920 heartbeat IPC: 3.999 cumulative IPC: 3.993 (Simulation time: 00 hr 34 min 16 sec)
Heartbeat CPU 13 instructions: 20000006 cycles: 5009000 heartbeat IPC: 3.999 cumulative IPC: 3.993 (Simulation time: 00 hr 34 min 16 sec)
Heartbeat CPU 11 instructions: 20000002 cycles: 5009012 heartbeat IPC: 4 cumulative IPC: 3.993 (Simulation time: 00 hr 34 min 16 sec)
Heartbeat CPU 3 instructions: 20000002 cycles: 5009013 heartbeat IPC: 4 cumulative IPC: 3.993 (Simulation time: 00 hr 34 min 16 sec)
Heartbeat CPU 5 instructions: 20000005 cycles: 5009022 heartbeat IPC: 3.999 cumulative IPC: 3.993 (Simulation time: 00 hr 34 min 16 sec)
Heartbeat CPU 12 instructions: 20000004 cycles: 5009099 heartbeat IPC: 3.999 cumulative IPC: 3.993 (Simulation time: 00 hr 34 min 16 sec)
Heartbeat CPU 14 instructions: 20000001 cycles: 5009231 heartbeat IPC: 4 cumulative IPC: 3.993 (Simulation time: 00 hr 34 min 16 sec)
Heartbeat CPU 6 instructions: 20000005 cycles: 5009233 heartbeat IPC: 4 cumulative IPC: 3.993 (Simulation time: 00 hr 34 min 16 sec)
Heartbeat CPU 7 instructions: 20000003 cycles: 5009273 heartbeat IPC: 4 cumulative IPC: 3.993 (Simulation time: 00 hr 34 min 16 sec)
Heartbeat CPU 15 instructions: 20000003 cycles: 5009340 heartbeat IPC: 4 cumulative IPC: 3.993 (Simulation time: 00 hr 34 min 16 sec)
Heartbeat CPU 2 instructions: 20000003 cycles: 5010459 heartbeat IPC: 3.999 cumulative IPC: 3.992 (Simulation time: 00 hr 34 min 17 sec)
Heartbeat CPU 10 instructions: 20000003 cycles: 5010648 heartbeat IPC: 3.999 cumulative IPC: 3.992 (Simulation time: 00 hr 34 min 17 sec)
Heartbeat CPU 4 instructions: 30000003 cycles: 7508920 heartbeat IPC: 4 cumulative IPC: 3.995 (Simulation time: 00 hr 51 min 46 sec)
Heartbeat CPU 13 instructions: 30000006 cycles: 7509000 heartbeat IPC: 4 cumulative IPC: 3.995 (Simulation time: 00 hr 51 min 46 sec)
Heartbeat CPU 11 instructions: 30000002 cycles: 7509012 heartbeat IPC: 4 cumulative IPC: 3.995 (Simulation time: 00 hr 51 min 46 sec)
Heartbeat CPU 3 instructions: 30000002 cycles: 7509013 heartbeat IPC: 4 cumulative IPC: 3.995 (Simulation time: 00 hr 51 min 46 sec)
Heartbeat CPU 5 instructions: 30000005 cycles: 7509022 heartbeat IPC: 4 cumulative IPC: 3.995 (Simulation time: 00 hr 51 min 46 sec)
Heartbeat CPU 12 instructions: 30000004 cycles: 7509099 heartbeat IPC: 4 cumulative IPC: 3.995 (Simulation time: 00 hr 51 min 46 sec)
Heartbeat CPU 14 instructions: 30000001 cycles: 7509231 heartbeat IPC: 4 cumulative IPC: 3.995 (Simulation time: 00 hr 51 min 46 sec)
Heartbeat CPU 6 instructions: 30000005 cycles: 7509233 heartbeat IPC: 4 cumulative IPC: 3.995 (Simulation time: 00 hr 51 min 46 sec)
Heartbeat CPU 7 instructions: 30000003 cycles: 7509273 heartbeat IPC: 4 cumulative IPC: 3.995 (Simulation time: 00 hr 51 min 46 sec)
Heartbeat CPU 15 instructions: 30000003 cycles: 7509340 heartbeat IPC: 4 cumulative IPC: 3.995 (Simulation time: 00 hr 51 min 46 sec)
Heartbeat CPU 2 instructions: 30000003 cycles: 7510459 heartbeat IPC: 4 cumulative IPC: 3.994 (Simulation time: 00 hr 51 min 46 sec)
Heartbeat CPU 10 instructions: 30000003 cycles: 7510648 heartbeat IPC: 4 cumulative IPC: 3.994 (Simulation time: 00 hr 51 min 47 sec)
Heartbeat CPU 9 instructions: 20000004 cycles: 9037749 heartbeat IPC: 2.242 cumulative IPC: 2.213 (Simulation time: 01 hr 02 min 01 sec)
Heartbeat CPU 1 instructions: 20000003 cycles: 9037756 heartbeat IPC: 2.242 cumulative IPC: 2.213 (Simulation time: 01 hr 02 min 01 sec)
Heartbeat CPU 4 instructions: 40000003 cycles: 10008920 heartbeat IPC: 4 cumulative IPC: 3.996 (Simulation time: 01 hr 09 min 00 sec)
Heartbeat CPU 13 instructions: 40000006 cycles: 10009000 heartbeat IPC: 4 cumulative IPC: 3.996 (Simulation time: 01 hr 09 min 00 sec)
Heartbeat CPU 11 instructions: 40000002 cycles: 10009012 heartbeat IPC: 4 cumulative IPC: 3.996 (Simulation time: 01 hr 09 min 00 sec)
Heartbeat CPU 3 instructions: 40000002 cycles: 10009013 heartbeat IPC: 4 cumulative IPC: 3.996 (Simulation time: 01 hr 09 min 00 sec)
Heartbeat CPU 5 instructions: 40000005 cycles: 10009022 heartbeat IPC: 4 cumulative IPC: 3.996 (Simulation time: 01 hr 09 min 00 sec)
Heartbeat CPU 12 instructions: 40000004 cycles: 10009099 heartbeat IPC: 4 cumulative IPC: 3.996 (Simulation time: 01 hr 09 min 00 sec)
Heartbeat CPU 14 instructions: 40000001 cycles: 10009231 heartbeat IPC: 4 cumulative IPC: 3.996 (Simulation time: 01 hr 09 min 00 sec)
Heartbeat CPU 6 instructions: 40000005 cycles: 10009233 heartbeat IPC: 4 cumulative IPC: 3.996 (Simulation time: 01 hr 09 min 00 sec)
Heartbeat CPU 7 instructions: 40000003 cycles: 10009273 heartbeat IPC: 4 cumulative IPC: 3.996 (Simulation time: 01 hr 09 min 00 sec)
Heartbeat CPU 15 instructions: 40000003 cycles: 10009340 heartbeat IPC: 4 cumulative IPC: 3.996 (Simulation time: 01 hr 09 min 00 sec)
Heartbeat CPU 2 instructions: 40000003 cycles: 10010459 heartbeat IPC: 4 cumulative IPC: 3.996 (Simulation time: 01 hr 09 min 00 sec)
Heartbeat CPU 10 instructions: 40000003 cycles: 10010648 heartbeat IPC: 4 cumulative IPC: 3.996 (Simulation time: 01 hr 09 min 01 sec)
*** Reached end of trace: (2, "/home/harshraj/COALESCE-Hashed-Perceptron-Cache-Replacement-Policy/simulator/traces/ocean_8t/ocean2.champsimtrace")
*** Reached end of trace: (10, "/home/harshraj/COALESCE-Hashed-Perceptron-Cache-Replacement-Policy/simulator/traces/ocean_8t/ocean2.champsimtrace")
*** Reached end of trace: (13, "/home/harshraj/COALESCE-Hashed-Perceptron-Cache-Replacement-Policy/simulator/traces/ocean_8t/ocean5.champsimtrace")
*** Reached end of trace: (5, "/home/harshraj/COALESCE-Hashed-Perceptron-Cache-Replacement-Policy/simulator/traces/ocean_8t/ocean5.champsimtrace")
*** Reached end of trace: (4, "/home/harshraj/COALESCE-Hashed-Perceptron-Cache-Replacement-Policy/simulator/traces/ocean_8t/ocean4.champsimtrace")
*** Reached end of trace: (12, "/home/harshraj/COALESCE-Hashed-Perceptron-Cache-Replacement-Policy/simulator/traces/ocean_8t/ocean4.champsimtrace")
*** Reached end of trace: (14, "/home/harshraj/COALESCE-Hashed-Perceptron-Cache-Replacement-Policy/simulator/traces/ocean_8t/ocean6.champsimtrace")
*** Reached end of trace: (6, "/home/harshraj/COALESCE-Hashed-Perceptron-Cache-Replacement-Policy/simulator/traces/ocean_8t/ocean6.champsimtrace")
*** Reached end of trace: (11, "/home/harshraj/COALESCE-Hashed-Perceptron-Cache-Replacement-Policy/simulator/traces/ocean_8t/ocean3.champsimtrace")
*** Reached end of trace: (3, "/home/harshraj/COALESCE-Hashed-Perceptron-Cache-Replacement-Policy/simulator/traces/ocean_8t/ocean3.champsimtrace")
*** Reached end of trace: (7, "/home/harshraj/COALESCE-Hashed-Perceptron-Cache-Replacement-Policy/simulator/traces/ocean_8t/ocean7.champsimtrace")
*** Reached end of trace: (15, "/home/harshraj/COALESCE-Hashed-Perceptron-Cache-Replacement-Policy/simulator/traces/ocean_8t/ocean7.champsimtrace")
Warmup finished CPU 4 instructions: 50000002 cycles: 12510923 cumulative IPC: 3.997 (Simulation time: 01 hr 27 min 00 sec)
Heartbeat CPU 4 instructions: 50000006 cycles: 12510924 heartbeat IPC: 3.997 cumulative IPC: 3.997 (Simulation time: 01 hr 27 min 00 sec)
Warmup finished CPU 13 instructions: 50000001 cycles: 12511004 cumulative IPC: 3.996 (Simulation time: 01 hr 27 min 00 sec)
Heartbeat CPU 13 instructions: 50000009 cycles: 12511006 heartbeat IPC: 3.997 cumulative IPC: 3.996 (Simulation time: 01 hr 27 min 00 sec)
Warmup finished CPU 11 instructions: 50000000 cycles: 12511017 cumulative IPC: 3.996 (Simulation time: 01 hr 27 min 00 sec)
Heartbeat CPU 11 instructions: 50000004 cycles: 12511018 heartbeat IPC: 3.997 cumulative IPC: 3.996 (Simulation time: 01 hr 27 min 00 sec)
Warmup finished CPU 3 instructions: 50000000 cycles: 12511018 cumulative IPC: 3.996 (Simulation time: 01 hr 27 min 00 sec)
Heartbeat CPU 3 instructions: 50000004 cycles: 12511019 heartbeat IPC: 3.997 cumulative IPC: 3.996 (Simulation time: 01 hr 27 min 00 sec)
Warmup finished CPU 5 instructions: 50000001 cycles: 12511028 cumulative IPC: 3.996 (Simulation time: 01 hr 27 min 00 sec)
Heartbeat CPU 5 instructions: 50000005 cycles: 12511029 heartbeat IPC: 3.997 cumulative IPC: 3.996 (Simulation time: 01 hr 27 min 00 sec)
Warmup finished CPU 12 instructions: 50000002 cycles: 12511102 cumulative IPC: 3.996 (Simulation time: 01 hr 27 min 00 sec)
Heartbeat CPU 12 instructions: 50000006 cycles: 12511103 heartbeat IPC: 3.997 cumulative IPC: 3.996 (Simulation time: 01 hr 27 min 00 sec)
Heartbeat CPU 14 instructions: 50000002 cycles: 12511231 heartbeat IPC: 3.997 cumulative IPC: 3.996 (Simulation time: 01 hr 27 min 00 sec)
Warmup finished CPU 14 instructions: 50000002 cycles: 12511231 cumulative IPC: 3.996 (Simulation time: 01 hr 27 min 00 sec)
Warmup finished CPU 6 instructions: 50000002 cycles: 12511240 cumulative IPC: 3.996 (Simulation time: 01 hr 27 min 00 sec)
Heartbeat CPU 6 instructions: 50000006 cycles: 12511241 heartbeat IPC: 3.997 cumulative IPC: 3.996 (Simulation time: 01 hr 27 min 00 sec)
Heartbeat CPU 7 instructions: 50000003 cycles: 12511255 heartbeat IPC: 3.997 cumulative IPC: 3.996 (Simulation time: 01 hr 27 min 00 sec)
Warmup finished CPU 7 instructions: 50000003 cycles: 12511255 cumulative IPC: 3.996 (Simulation time: 01 hr 27 min 00 sec)
Heartbeat CPU 15 instructions: 50000003 cycles: 12511340 heartbeat IPC: 3.997 cumulative IPC: 3.996 (Simulation time: 01 hr 27 min 00 sec)
Warmup finished CPU 15 instructions: 50000003 cycles: 12511340 cumulative IPC: 3.996 (Simulation time: 01 hr 27 min 00 sec)
Warmup finished CPU 2 instructions: 50000002 cycles: 12512865 cumulative IPC: 3.996 (Simulation time: 01 hr 27 min 01 sec)
Heartbeat CPU 2 instructions: 50000006 cycles: 12512866 heartbeat IPC: 3.996 cumulative IPC: 3.996 (Simulation time: 01 hr 27 min 01 sec)
Warmup finished CPU 10 instructions: 50000002 cycles: 12513050 cumulative IPC: 3.996 (Simulation time: 01 hr 27 min 01 sec)
Heartbeat CPU 10 instructions: 50000006 cycles: 12513051 heartbeat IPC: 3.996 cumulative IPC: 3.996 (Simulation time: 01 hr 27 min 01 sec)
Heartbeat CPU 1 instructions: 30000006 cycles: 14351135 heartbeat IPC: 1.882 cumulative IPC: 2.09 (Simulation time: 01 hr 39 min 43 sec)
Heartbeat CPU 9 instructions: 30000006 cycles: 14351138 heartbeat IPC: 1.882 cumulative IPC: 2.09 (Simulation time: 01 hr 39 min 43 sec)
Heartbeat CPU 4 instructions: 60000006 cycles: 15010924 heartbeat IPC: 4 cumulative IPC: 3.997 (Simulation time: 01 hr 43 min 53 sec)
Heartbeat CPU 13 instructions: 60000009 cycles: 15011006 heartbeat IPC: 4 cumulative IPC: 3.997 (Simulation time: 01 hr 43 min 53 sec)
Heartbeat CPU 11 instructions: 60000004 cycles: 15011018 heartbeat IPC: 4 cumulative IPC: 3.997 (Simulation time: 01 hr 43 min 53 sec)
Heartbeat CPU 3 instructions: 60000004 cycles: 15011019 heartbeat IPC: 4 cumulative IPC: 3.997 (Simulation time: 01 hr 43 min 53 sec)
Heartbeat CPU 5 instructions: 60000005 cycles: 15011029 heartbeat IPC: 4 cumulative IPC: 3.997 (Simulation time: 01 hr 43 min 53 sec)
Heartbeat CPU 12 instructions: 60000006 cycles: 15011103 heartbeat IPC: 4 cumulative IPC: 3.997 (Simulation time: 01 hr 43 min 53 sec)
Heartbeat CPU 14 instructions: 60000002 cycles: 15011231 heartbeat IPC: 4 cumulative IPC: 3.997 (Simulation time: 01 hr 43 min 53 sec)
Heartbeat CPU 6 instructions: 60000006 cycles: 15011241 heartbeat IPC: 4 cumulative IPC: 3.997 (Simulation time: 01 hr 43 min 53 sec)
Heartbeat CPU 7 instructions: 60000003 cycles: 15011255 heartbeat IPC: 4 cumulative IPC: 3.997 (Simulation time: 01 hr 43 min 53 sec)
Heartbeat CPU 15 instructions: 60000003 cycles: 15011340 heartbeat IPC: 4 cumulative IPC: 3.997 (Simulation time: 01 hr 43 min 53 sec)
Heartbeat CPU 2 instructions: 60000006 cycles: 15012866 heartbeat IPC: 4 cumulative IPC: 3.997 (Simulation time: 01 hr 43 min 54 sec)
Heartbeat CPU 10 instructions: 60000006 cycles: 15013051 heartbeat IPC: 4 cumulative IPC: 3.997 (Simulation time: 01 hr 43 min 54 sec)
Heartbeat CPU 4 instructions: 70000006 cycles: 17510924 heartbeat IPC: 4 cumulative IPC: 3.998 (Simulation time: 02 hr 00 min 35 sec)
Heartbeat CPU 13 instructions: 70000009 cycles: 17511006 heartbeat IPC: 4 cumulative IPC: 3.997 (Simulation time: 02 hr 00 min 35 sec)
Heartbeat CPU 11 instructions: 70000004 cycles: 17511018 heartbeat IPC: 4 cumulative IPC: 3.997 (Simulation time: 02 hr 00 min 35 sec)
Heartbeat CPU 3 instructions: 70000004 cycles: 17511019 heartbeat IPC: 4 cumulative IPC: 3.997 (Simulation time: 02 hr 00 min 35 sec)
Heartbeat CPU 5 instructions: 70000005 cycles: 17511029 heartbeat IPC: 4 cumulative IPC: 3.997 (Simulation time: 02 hr 00 min 35 sec)
Heartbeat CPU 12 instructions: 70000006 cycles: 17511103 heartbeat IPC: 4 cumulative IPC: 3.997 (Simulation time: 02 hr 00 min 35 sec)
Heartbeat CPU 14 instructions: 70000002 cycles: 17511231 heartbeat IPC: 4 cumulative IPC: 3.997 (Simulation time: 02 hr 00 min 35 sec)
Heartbeat CPU 6 instructions: 70000006 cycles: 17511241 heartbeat IPC: 4 cumulative IPC: 3.997 (Simulation time: 02 hr 00 min 35 sec)
Heartbeat CPU 7 instructions: 70000003 cycles: 17511255 heartbeat IPC: 4 cumulative IPC: 3.997 (Simulation time: 02 hr 00 min 35 sec)
Heartbeat CPU 15 instructions: 70000003 cycles: 17511340 heartbeat IPC: 4 cumulative IPC: 3.997 (Simulation time: 02 hr 00 min 35 sec)
Heartbeat CPU 2 instructions: 70000006 cycles: 17512866 heartbeat IPC: 4 cumulative IPC: 3.997 (Simulation time: 02 hr 00 min 36 sec)
Heartbeat CPU 10 instructions: 70000006 cycles: 17513051 heartbeat IPC: 4 cumulative IPC: 3.997 (Simulation time: 02 hr 00 min 36 sec)
Heartbeat CPU 9 instructions: 40000008 cycles: 18594362 heartbeat IPC: 2.357 cumulative IPC: 2.151 (Simulation time: 02 hr 08 min 42 sec)
Heartbeat CPU 1 instructions: 40000007 cycles: 18594364 heartbeat IPC: 2.357 cumulative IPC: 2.151 (Simulation time: 02 hr 08 min 42 sec)
Heartbeat CPU 4 instructions: 80000006 cycles: 20010924 heartbeat IPC: 4 cumulative IPC: 3.998 (Simulation time: 02 hr 17 min 37 sec)
Heartbeat CPU 13 instructions: 80000009 cycles: 20011006 heartbeat IPC: 4 cumulative IPC: 3.998 (Simulation time: 02 hr 17 min 37 sec)
Heartbeat CPU 11 instructions: 80000004 cycles: 20011018 heartbeat IPC: 4 cumulative IPC: 3.998 (Simulation time: 02 hr 17 min 37 sec)
Heartbeat CPU 3 instructions: 80000004 cycles: 20011019 heartbeat IPC: 4 cumulative IPC: 3.998 (Simulation time: 02 hr 17 min 37 sec)
Heartbeat CPU 5 instructions: 80000005 cycles: 20011029 heartbeat IPC: 4 cumulative IPC: 3.998 (Simulation time: 02 hr 17 min 37 sec)
Heartbeat CPU 12 instructions: 80000006 cycles: 20011103 heartbeat IPC: 4 cumulative IPC: 3.998 (Simulation time: 02 hr 17 min 37 sec)
Heartbeat CPU 14 instructions: 80000002 cycles: 20011231 heartbeat IPC: 4 cumulative IPC: 3.998 (Simulation time: 02 hr 17 min 37 sec)
Heartbeat CPU 6 instructions: 80000006 cycles: 20011241 heartbeat IPC: 4 cumulative IPC: 3.998 (Simulation time: 02 hr 17 min 37 sec)
Heartbeat CPU 7 instructions: 80000003 cycles: 20011255 heartbeat IPC: 4 cumulative IPC: 3.998 (Simulation time: 02 hr 17 min 37 sec)
Heartbeat CPU 15 instructions: 80000003 cycles: 20011340 heartbeat IPC: 4 cumulative IPC: 3.998 (Simulation time: 02 hr 17 min 37 sec)
Heartbeat CPU 2 instructions: 80000006 cycles: 20012866 heartbeat IPC: 4 cumulative IPC: 3.997 (Simulation time: 02 hr 17 min 37 sec)
Heartbeat CPU 10 instructions: 80000006 cycles: 20013051 heartbeat IPC: 4 cumulative IPC: 3.997 (Simulation time: 02 hr 17 min 37 sec)
*** Reached end of trace: (9, "/home/harshraj/COALESCE-Hashed-Perceptron-Cache-Replacement-Policy/simulator/traces/ocean_8t/ocean1.champsimtrace")
*** Reached end of trace: (1, "/home/harshraj/COALESCE-Hashed-Perceptron-Cache-Replacement-Policy/simulator/traces/ocean_8t/ocean1.champsimtrace")
Heartbeat CPU 0 instructions: 10000000 cycles: 20595422 heartbeat IPC: 0.4855 cumulative IPC: 0.4855 (Simulation time: 02 hr 21 min 29 sec)
Heartbeat CPU 8 instructions: 10000000 cycles: 20595624 heartbeat IPC: 0.4855 cumulative IPC: 0.4855 (Simulation time: 02 hr 21 min 29 sec)
Warmup finished CPU 9 instructions: 50000002 cycles: 22490880 cumulative IPC: 2.223 (Simulation time: 02 hr 34 min 45 sec)
Warmup finished CPU 1 instructions: 50000002 cycles: 22490881 cumulative IPC: 2.223 (Simulation time: 02 hr 34 min 45 sec)
Heartbeat CPU 9 instructions: 50000010 cycles: 22490882 heartbeat IPC: 2.566 cumulative IPC: 2.223 (Simulation time: 02 hr 34 min 45 sec)
Heartbeat CPU 1 instructions: 50000010 cycles: 22490883 heartbeat IPC: 2.566 cumulative IPC: 2.223 (Simulation time: 02 hr 34 min 45 sec)
Heartbeat CPU 4 instructions: 90000006 cycles: 22510924 heartbeat IPC: 4 cumulative IPC: 3.998 (Simulation time: 02 hr 34 min 53 sec)
Heartbeat CPU 13 instructions: 90000009 cycles: 22511006 heartbeat IPC: 4 cumulative IPC: 3.998 (Simulation time: 02 hr 34 min 53 sec)
Heartbeat CPU 11 instructions: 90000004 cycles: 22511018 heartbeat IPC: 4 cumulative IPC: 3.998 (Simulation time: 02 hr 34 min 53 sec)
Heartbeat CPU 3 instructions: 90000004 cycles: 22511019 heartbeat IPC: 4 cumulative IPC: 3.998 (Simulation time: 02 hr 34 min 53 sec)
Heartbeat CPU 5 instructions: 90000005 cycles: 22511029 heartbeat IPC: 4 cumulative IPC: 3.998 (Simulation time: 02 hr 34 min 53 sec)
Heartbeat CPU 12 instructions: 90000006 cycles: 22511103 heartbeat IPC: 4 cumulative IPC: 3.998 (Simulation time: 02 hr 34 min 53 sec)
Heartbeat CPU 14 instructions: 90000002 cycles: 22511231 heartbeat IPC: 4 cumulative IPC: 3.998 (Simulation time: 02 hr 34 min 53 sec)
Heartbeat CPU 6 instructions: 90000006 cycles: 22511241 heartbeat IPC: 4 cumulative IPC: 3.998 (Simulation time: 02 hr 34 min 53 sec)
Heartbeat CPU 7 instructions: 90000003 cycles: 22511255 heartbeat IPC: 4 cumulative IPC: 3.998 (Simulation time: 02 hr 34 min 53 sec)
Heartbeat CPU 15 instructions: 90000003 cycles: 22511340 heartbeat IPC: 4 cumulative IPC: 3.998 (Simulation time: 02 hr 34 min 53 sec)
Heartbeat CPU 2 instructions: 90000006 cycles: 22512866 heartbeat IPC: 4 cumulative IPC: 3.998 (Simulation time: 02 hr 34 min 54 sec)
Heartbeat CPU 10 instructions: 90000006 cycles: 22513051 heartbeat IPC: 4 cumulative IPC: 3.998 (Simulation time: 02 hr 34 min 54 sec)
*** Reached end of trace: (2, "/home/harshraj/COALESCE-Hashed-Perceptron-Cache-Replacement-Policy/simulator/traces/ocean_8t/ocean2.champsimtrace")
*** Reached end of trace: (10, "/home/harshraj/COALESCE-Hashed-Perceptron-Cache-Replacement-Policy/simulator/traces/ocean_8t/ocean2.champsimtrace")
*** Reached end of trace: (13, "/home/harshraj/COALESCE-Hashed-Perceptron-Cache-Replacement-Policy/simulator/traces/ocean_8t/ocean5.champsimtrace")
*** Reached end of trace: (5, "/home/harshraj/COALESCE-Hashed-Perceptron-Cache-Replacement-Policy/simulator/traces/ocean_8t/ocean5.champsimtrace")
*** Reached end of trace: (4, "/home/harshraj/COALESCE-Hashed-Perceptron-Cache-Replacement-Policy/simulator/traces/ocean_8t/ocean4.champsimtrace")
*** Reached end of trace: (12, "/home/harshraj/COALESCE-Hashed-Perceptron-Cache-Replacement-Policy/simulator/traces/ocean_8t/ocean4.champsimtrace")
*** Reached end of trace: (14, "/home/harshraj/COALESCE-Hashed-Perceptron-Cache-Replacement-Policy/simulator/traces/ocean_8t/ocean6.champsimtrace")
*** Reached end of trace: (6, "/home/harshraj/COALESCE-Hashed-Perceptron-Cache-Replacement-Policy/simulator/traces/ocean_8t/ocean6.champsimtrace")
*** Reached end of trace: (11, "/home/harshraj/COALESCE-Hashed-Perceptron-Cache-Replacement-Policy/simulator/traces/ocean_8t/ocean3.champsimtrace")
*** Reached end of trace: (3, "/home/harshraj/COALESCE-Hashed-Perceptron-Cache-Replacement-Policy/simulator/traces/ocean_8t/ocean3.champsimtrace")
*** Reached end of trace: (7, "/home/harshraj/COALESCE-Hashed-Perceptron-Cache-Replacement-Policy/simulator/traces/ocean_8t/ocean7.champsimtrace")
*** Reached end of trace: (15, "/home/harshraj/COALESCE-Hashed-Perceptron-Cache-Replacement-Policy/simulator/traces/ocean_8t/ocean7.champsimtrace")
Heartbeat CPU 4 instructions: 100000006 cycles: 25010924 heartbeat IPC: 4 cumulative IPC: 3.998 (Simulation time: 02 hr 52 min 32 sec)
Heartbeat CPU 13 instructions: 100000009 cycles: 25011006 heartbeat IPC: 4 cumulative IPC: 3.998 (Simulation time: 02 hr 52 min 32 sec)
Heartbeat CPU 11 instructions: 100000004 cycles: 25011018 heartbeat IPC: 4 cumulative IPC: 3.998 (Simulation time: 02 hr 52 min 32 sec)
Heartbeat CPU 3 instructions: 100000004 cycles: 25011019 heartbeat IPC: 4 cumulative IPC: 3.998 (Simulation time: 02 hr 52 min 32 sec)
Heartbeat CPU 5 instructions: 100000005 cycles: 25011029 heartbeat IPC: 4 cumulative IPC: 3.998 (Simulation time: 02 hr 52 min 32 sec)
Heartbeat CPU 12 instructions: 100000006 cycles: 25011103 heartbeat IPC: 4 cumulative IPC: 3.998 (Simulation time: 02 hr 52 min 32 sec)
Heartbeat CPU 14 instructions: 100000002 cycles: 25011231 heartbeat IPC: 4 cumulative IPC: 3.998 (Simulation time: 02 hr 52 min 32 sec)
Heartbeat CPU 6 instructions: 100000006 cycles: 25011241 heartbeat IPC: 4 cumulative IPC: 3.998 (Simulation time: 02 hr 52 min 32 sec)
Heartbeat CPU 7 instructions: 100000003 cycles: 25011255 heartbeat IPC: 4 cumulative IPC: 3.998 (Simulation time: 02 hr 52 min 32 sec)
Heartbeat CPU 15 instructions: 100000003 cycles: 25011340 heartbeat IPC: 4 cumulative IPC: 3.998 (Simulation time: 02 hr 52 min 32 sec)
Heartbeat CPU 2 instructions: 100000006 cycles: 25012866 heartbeat IPC: 4 cumulative IPC: 3.998 (Simulation time: 02 hr 52 min 32 sec)
Heartbeat CPU 10 instructions: 100000006 cycles: 25013051 heartbeat IPC: 4 cumulative IPC: 3.998 (Simulation time: 02 hr 52 min 32 sec)
Heartbeat CPU 9 instructions: 60000013 cycles: 26608139 heartbeat IPC: 2.429 cumulative IPC: 2.255 (Simulation time: 03 hr 04 min 10 sec)
Heartbeat CPU 1 instructions: 60000013 cycles: 26608140 heartbeat IPC: 2.429 cumulative IPC: 2.255 (Simulation time: 03 hr 04 min 10 sec)
Heartbeat CPU 4 instructions: 110000006 cycles: 27510924 heartbeat IPC: 4 cumulative IPC: 3.998 (Simulation time: 03 hr 10 min 17 sec)
Heartbeat CPU 13 instructions: 110000009 cycles: 27511006 heartbeat IPC: 4 cumulative IPC: 3.998 (Simulation time: 03 hr 10 min 17 sec)
Heartbeat CPU 11 instructions: 110000004 cycles: 27511018 heartbeat IPC: 4 cumulative IPC: 3.998 (Simulation time: 03 hr 10 min 17 sec)
Heartbeat CPU 3 instructions: 110000004 cycles: 27511019 heartbeat IPC: 4 cumulative IPC: 3.998 (Simulation time: 03 hr 10 min 17 sec)
Heartbeat CPU 5 instructions: 110000005 cycles: 27511029 heartbeat IPC: 4 cumulative IPC: 3.998 (Simulation time: 03 hr 10 min 17 sec)
Heartbeat CPU 12 instructions: 110000006 cycles: 27511103 heartbeat IPC: 4 cumulative IPC: 3.998 (Simulation time: 03 hr 10 min 17 sec)
Heartbeat CPU 14 instructions: 110000002 cycles: 27511231 heartbeat IPC: 4 cumulative IPC: 3.998 (Simulation time: 03 hr 10 min 17 sec)
Heartbeat CPU 6 instructions: 110000006 cycles: 27511241 heartbeat IPC: 4 cumulative IPC: 3.998 (Simulation time: 03 hr 10 min 17 sec)
Heartbeat CPU 7 instructions: 110000003 cycles: 27511255 heartbeat IPC: 4 cumulative IPC: 3.998 (Simulation time: 03 hr 10 min 17 sec)
Heartbeat CPU 15 instructions: 110000003 cycles: 27511340 heartbeat IPC: 4 cumulative IPC: 3.998 (Simulation time: 03 hr 10 min 17 sec)
Heartbeat CPU 2 instructions: 110000006 cycles: 27512866 heartbeat IPC: 4 cumulative IPC: 3.998 (Simulation time: 03 hr 10 min 18 sec)
Heartbeat CPU 10 instructions: 110000006 cycles: 27513051 heartbeat IPC: 4 cumulative IPC: 3.998 (Simulation time: 03 hr 10 min 18 sec)
Heartbeat CPU 4 instructions: 120000006 cycles: 30010924 heartbeat IPC: 4 cumulative IPC: 3.999 (Simulation time: 03 hr 27 min 03 sec)
Heartbeat CPU 13 instructions: 120000009 cycles: 30011006 heartbeat IPC: 4 cumulative IPC: 3.999 (Simulation time: 03 hr 27 min 03 sec)
Heartbeat CPU 11 instructions: 120000004 cycles: 30011018 heartbeat IPC: 4 cumulative IPC: 3.999 (Simulation time: 03 hr 27 min 03 sec)
Heartbeat CPU 3 instructions: 120000004 cycles: 30011019 heartbeat IPC: 4 cumulative IPC: 3.999 (Simulation time: 03 hr 27 min 03 sec)
Heartbeat CPU 5 instructions: 120000005 cycles: 30011029 heartbeat IPC: 4 cumulative IPC: 3.999 (Simulation time: 03 hr 27 min 03 sec)
Heartbeat CPU 12 instructions: 120000006 cycles: 30011103 heartbeat IPC: 4 cumulative IPC: 3.999 (Simulation time: 03 hr 27 min 03 sec)
Heartbeat CPU 14 instructions: 120000002 cycles: 30011231 heartbeat IPC: 4 cumulative IPC: 3.999 (Simulation time: 03 hr 27 min 04 sec)
Heartbeat CPU 6 instructions: 120000006 cycles: 30011241 heartbeat IPC: 4 cumulative IPC: 3.999 (Simulation time: 03 hr 27 min 04 sec)
Heartbeat CPU 7 instructions: 120000003 cycles: 30011255 heartbeat IPC: 4 cumulative IPC: 3.998 (Simulation time: 03 hr 27 min 04 sec)
Heartbeat CPU 15 instructions: 120000003 cycles: 30011340 heartbeat IPC: 4 cumulative IPC: 3.998 (Simulation time: 03 hr 27 min 04 sec)
Heartbeat CPU 2 instructions: 120000006 cycles: 30012866 heartbeat IPC: 4 cumulative IPC: 3.998 (Simulation time: 03 hr 27 min 04 sec)
Heartbeat CPU 10 instructions: 120000006 cycles: 30013051 heartbeat IPC: 4 cumulative IPC: 3.998 (Simulation time: 03 hr 27 min 04 sec)
Heartbeat CPU 9 instructions: 70000013 cycles: 30789224 heartbeat IPC: 2.392 cumulative IPC: 2.274 (Simulation time: 03 hr 32 min 52 sec)
Heartbeat CPU 1 instructions: 70000013 cycles: 30789225 heartbeat IPC: 2.392 cumulative IPC: 2.274 (Simulation time: 03 hr 32 min 52 sec)
Heartbeat CPU 4 instructions: 130000006 cycles: 32510924 heartbeat IPC: 4 cumulative IPC: 3.999 (Simulation time: 03 hr 44 min 24 sec)
Heartbeat CPU 13 instructions: 130000009 cycles: 32511006 heartbeat IPC: 4 cumulative IPC: 3.999 (Simulation time: 03 hr 44 min 24 sec)
Heartbeat CPU 11 instructions: 130000004 cycles: 32511018 heartbeat IPC: 4 cumulative IPC: 3.999 (Simulation time: 03 hr 44 min 24 sec)
Heartbeat CPU 3 instructions: 130000004 cycles: 32511019 heartbeat IPC: 4 cumulative IPC: 3.999 (Simulation time: 03 hr 44 min 24 sec)
Heartbeat CPU 5 instructions: 130000005 cycles: 32511029 heartbeat IPC: 4 cumulative IPC: 3.999 (Simulation time: 03 hr 44 min 24 sec)
Heartbeat CPU 12 instructions: 130000006 cycles: 32511103 heartbeat IPC: 4 cumulative IPC: 3.999 (Simulation time: 03 hr 44 min 24 sec)
Heartbeat CPU 14 instructions: 130000002 cycles: 32511231 heartbeat IPC: 4 cumulative IPC: 3.999 (Simulation time: 03 hr 44 min 24 sec)
Heartbeat CPU 6 instructions: 130000006 cycles: 32511241 heartbeat IPC: 4 cumulative IPC: 3.999 (Simulation time: 03 hr 44 min 24 sec)
Heartbeat CPU 7 instructions: 130000003 cycles: 32511255 heartbeat IPC: 4 cumulative IPC: 3.999 (Simulation time: 03 hr 44 min 24 sec)
Heartbeat CPU 15 instructions: 130000003 cycles: 32511340 heartbeat IPC: 4 cumulative IPC: 3.999 (Simulation time: 03 hr 44 min 24 sec)
Heartbeat CPU 2 instructions: 130000006 cycles: 32512866 heartbeat IPC: 4 cumulative IPC: 3.998 (Simulation time: 03 hr 44 min 25 sec)
Heartbeat CPU 10 instructions: 130000006 cycles: 32513051 heartbeat IPC: 4 cumulative IPC: 3.998 (Simulation time: 03 hr 44 min 25 sec)
*** Reached end of trace: (2, "/home/harshraj/COALESCE-Hashed-Perceptron-Cache-Replacement-Policy/simulator/traces/ocean_8t/ocean2.champsimtrace")
*** Reached end of trace: (10, "/home/harshraj/COALESCE-Hashed-Perceptron-Cache-Replacement-Policy/simulator/traces/ocean_8t/ocean2.champsimtrace")
*** Reached end of trace: (13, "/home/harshraj/COALESCE-Hashed-Perceptron-Cache-Replacement-Policy/simulator/traces/ocean_8t/ocean5.champsimtrace")
*** Reached end of trace: (5, "/home/harshraj/COALESCE-Hashed-Perceptron-Cache-Replacement-Policy/simulator/traces/ocean_8t/ocean5.champsimtrace")
*** Reached end of trace: (4, "/home/harshraj/COALESCE-Hashed-Perceptron-Cache-Replacement-Policy/simulator/traces/ocean_8t/ocean4.champsimtrace")
*** Reached end of trace: (12, "/home/harshraj/COALESCE-Hashed-Perceptron-Cache-Replacement-Policy/simulator/traces/ocean_8t/ocean4.champsimtrace")
*** Reached end of trace: (14, "/home/harshraj/COALESCE-Hashed-Perceptron-Cache-Replacement-Policy/simulator/traces/ocean_8t/ocean6.champsimtrace")
*** Reached end of trace: (6, "/home/harshraj/COALESCE-Hashed-Perceptron-Cache-Replacement-Policy/simulator/traces/ocean_8t/ocean6.champsimtrace")
*** Reached end of trace: (11, "/home/harshraj/COALESCE-Hashed-Perceptron-Cache-Replacement-Policy/simulator/traces/ocean_8t/ocean3.champsimtrace")
*** Reached end of trace: (3, "/home/harshraj/COALESCE-Hashed-Perceptron-Cache-Replacement-Policy/simulator/traces/ocean_8t/ocean3.champsimtrace")
*** Reached end of trace: (7, "/home/harshraj/COALESCE-Hashed-Perceptron-Cache-Replacement-Policy/simulator/traces/ocean_8t/ocean7.champsimtrace")
*** Reached end of trace: (15, "/home/harshraj/COALESCE-Hashed-Perceptron-Cache-Replacement-Policy/simulator/traces/ocean_8t/ocean7.champsimtrace")
Heartbeat CPU 4 instructions: 140000006 cycles: 35010924 heartbeat IPC: 4 cumulative IPC: 3.999 (Simulation time: 04 hr 00 min 53 sec)
Heartbeat CPU 13 instructions: 140000009 cycles: 35011006 heartbeat IPC: 4 cumulative IPC: 3.999 (Simulation time: 04 hr 00 min 53 sec)
Heartbeat CPU 11 instructions: 140000004 cycles: 35011018 heartbeat IPC: 4 cumulative IPC: 3.999 (Simulation time: 04 hr 00 min 53 sec)
Heartbeat CPU 3 instructions: 140000004 cycles: 35011019 heartbeat IPC: 4 cumulative IPC: 3.999 (Simulation time: 04 hr 00 min 53 sec)
Heartbeat CPU 5 instructions: 140000005 cycles: 35011029 heartbeat IPC: 4 cumulative IPC: 3.999 (Simulation time: 04 hr 00 min 53 sec)
Heartbeat CPU 12 instructions: 140000006 cycles: 35011103 heartbeat IPC: 4 cumulative IPC: 3.999 (Simulation time: 04 hr 00 min 53 sec)
Heartbeat CPU 14 instructions: 140000002 cycles: 35011231 heartbeat IPC: 4 cumulative IPC: 3.999 (Simulation time: 04 hr 00 min 53 sec)
Heartbeat CPU 6 instructions: 140000006 cycles: 35011241 heartbeat IPC: 4 cumulative IPC: 3.999 (Simulation time: 04 hr 00 min 53 sec)
Heartbeat CPU 7 instructions: 140000003 cycles: 35011255 heartbeat IPC: 4 cumulative IPC: 3.999 (Simulation time: 04 hr 00 min 53 sec)
Heartbeat CPU 15 instructions: 140000003 cycles: 35011340 heartbeat IPC: 4 cumulative IPC: 3.999 (Simulation time: 04 hr 00 min 53 sec)
Heartbeat CPU 2 instructions: 140000006 cycles: 35012866 heartbeat IPC: 4 cumulative IPC: 3.999 (Simulation time: 04 hr 00 min 53 sec)
Heartbeat CPU 10 instructions: 140000006 cycles: 35013051 heartbeat IPC: 4 cumulative IPC: 3.999 (Simulation time: 04 hr 00 min 53 sec)
Heartbeat CPU 9 instructions: 80000013 cycles: 36350634 heartbeat IPC: 1.798 cumulative IPC: 2.201 (Simulation time: 04 hr 10 min 18 sec)
Heartbeat CPU 1 instructions: 80000013 cycles: 36350635 heartbeat IPC: 1.798 cumulative IPC: 2.201 (Simulation time: 04 hr 10 min 18 sec)
Heartbeat CPU 4 instructions: 150000006 cycles: 37510924 heartbeat IPC: 4 cumulative IPC: 3.999 (Simulation time: 04 hr 18 min 42 sec)
Heartbeat CPU 13 instructions: 150000009 cycles: 37511006 heartbeat IPC: 4 cumulative IPC: 3.999 (Simulation time: 04 hr 18 min 42 sec)
Heartbeat CPU 11 instructions: 150000004 cycles: 37511018 heartbeat IPC: 4 cumulative IPC: 3.999 (Simulation time: 04 hr 18 min 42 sec)
Heartbeat CPU 3 instructions: 150000004 cycles: 37511019 heartbeat IPC: 4 cumulative IPC: 3.999 (Simulation time: 04 hr 18 min 42 sec)
Heartbeat CPU 5 instructions: 150000005 cycles: 37511029 heartbeat IPC: 4 cumulative IPC: 3.999 (Simulation time: 04 hr 18 min 42 sec)
Heartbeat CPU 12 instructions: 150000006 cycles: 37511103 heartbeat IPC: 4 cumulative IPC: 3.999 (Simulation time: 04 hr 18 min 42 sec)
Heartbeat CPU 14 instructions: 150000002 cycles: 37511231 heartbeat IPC: 4 cumulative IPC: 3.999 (Simulation time: 04 hr 18 min 42 sec)
Heartbeat CPU 6 instructions: 150000006 cycles: 37511241 heartbeat IPC: 4 cumulative IPC: 3.999 (Simulation time: 04 hr 18 min 42 sec)
Heartbeat CPU 7 instructions: 150000003 cycles: 37511255 heartbeat IPC: 4 cumulative IPC: 3.999 (Simulation time: 04 hr 18 min 42 sec)
Heartbeat CPU 15 instructions: 150000003 cycles: 37511340 heartbeat IPC: 4 cumulative IPC: 3.999 (Simulation time: 04 hr 18 min 43 sec)
Heartbeat CPU 2 instructions: 150000006 cycles: 37512866 heartbeat IPC: 4 cumulative IPC: 3.999 (Simulation time: 04 hr 18 min 43 sec)
Heartbeat CPU 10 instructions: 150000006 cycles: 37513051 heartbeat IPC: 4 cumulative IPC: 3.999 (Simulation time: 04 hr 18 min 43 sec)
Heartbeat CPU 9 instructions: 90000015 cycles: 39790987 heartbeat IPC: 2.907 cumulative IPC: 2.262 (Simulation time: 04 hr 33 min 36 sec)
Heartbeat CPU 1 instructions: 90000014 cycles: 39790992 heartbeat IPC: 2.907 cumulative IPC: 2.262 (Simulation time: 04 hr 33 min 36 sec)
Heartbeat CPU 4 instructions: 160000006 cycles: 40010924 heartbeat IPC: 4 cumulative IPC: 3.999 (Simulation time: 04 hr 35 min 06 sec)
Heartbeat CPU 13 instructions: 160000009 cycles: 40011006 heartbeat IPC: 4 cumulative IPC: 3.999 (Simulation time: 04 hr 35 min 06 sec)
Heartbeat CPU 11 instructions: 160000004 cycles: 40011018 heartbeat IPC: 4 cumulative IPC: 3.999 (Simulation time: 04 hr 35 min 06 sec)
Heartbeat CPU 3 instructions: 160000004 cycles: 40011019 heartbeat IPC: 4 cumulative IPC: 3.999 (Simulation time: 04 hr 35 min 06 sec)
Heartbeat CPU 5 instructions: 160000005 cycles: 40011029 heartbeat IPC: 4 cumulative IPC: 3.999 (Simulation time: 04 hr 35 min 06 sec)
Heartbeat CPU 12 instructions: 160000006 cycles: 40011103 heartbeat IPC: 4 cumulative IPC: 3.999 (Simulation time: 04 hr 35 min 06 sec)
Heartbeat CPU 14 instructions: 160000002 cycles: 40011231 heartbeat IPC: 4 cumulative IPC: 3.999 (Simulation time: 04 hr 35 min 06 sec)
Heartbeat CPU 6 instructions: 160000006 cycles: 40011241 heartbeat IPC: 4 cumulative IPC: 3.999 (Simulation time: 04 hr 35 min 06 sec)
Heartbeat CPU 7 instructions: 160000003 cycles: 40011255 heartbeat IPC: 4 cumulative IPC: 3.999 (Simulation time: 04 hr 35 min 06 sec)
Heartbeat CPU 15 instructions: 160000003 cycles: 40011340 heartbeat IPC: 4 cumulative IPC: 3.999 (Simulation time: 04 hr 35 min 06 sec)
Heartbeat CPU 2 instructions: 160000006 cycles: 40012866 heartbeat IPC: 4 cumulative IPC: 3.999 (Simulation time: 04 hr 35 min 07 sec)
Heartbeat CPU 10 instructions: 160000006 cycles: 40013051 heartbeat IPC: 4 cumulative IPC: 3.999 (Simulation time: 04 hr 35 min 07 sec)
*** Reached end of trace: (9, "/home/harshraj/COALESCE-Hashed-Perceptron-Cache-Replacement-Policy/simulator/traces/ocean_8t/ocean1.champsimtrace")
*** Reached end of trace: (1, "/home/harshraj/COALESCE-Hashed-Perceptron-Cache-Replacement-Policy/simulator/traces/ocean_8t/ocean1.champsimtrace")
Heartbeat CPU 8 instructions: 20000001 cycles: 41701382 heartbeat IPC: 0.4738 cumulative IPC: 0.4796 (Simulation time: 04 hr 47 min 10 sec)
Heartbeat CPU 0 instructions: 20000003 cycles: 41701974 heartbeat IPC: 0.4738 cumulative IPC: 0.4796 (Simulation time: 04 hr 47 min 10 sec)
Heartbeat CPU 4 instructions: 170000006 cycles: 42510924 heartbeat IPC: 4 cumulative IPC: 3.999 (Simulation time: 04 hr 53 min 02 sec)
Heartbeat CPU 13 instructions: 170000009 cycles: 42511006 heartbeat IPC: 4 cumulative IPC: 3.999 (Simulation time: 04 hr 53 min 02 sec)
Heartbeat CPU 11 instructions: 170000004 cycles: 42511018 heartbeat IPC: 4 cumulative IPC: 3.999 (Simulation time: 04 hr 53 min 02 sec)
Heartbeat CPU 3 instructions: 170000004 cycles: 42511019 heartbeat IPC: 4 cumulative IPC: 3.999 (Simulation time: 04 hr 53 min 02 sec)
Heartbeat CPU 5 instructions: 170000005 cycles: 42511029 heartbeat IPC: 4 cumulative IPC: 3.999 (Simulation time: 04 hr 53 min 02 sec)
Heartbeat CPU 12 instructions: 170000006 cycles: 42511103 heartbeat IPC: 4 cumulative IPC: 3.999 (Simulation time: 04 hr 53 min 02 sec)
Heartbeat CPU 14 instructions: 170000002 cycles: 42511231 heartbeat IPC: 4 cumulative IPC: 3.999 (Simulation time: 04 hr 53 min 02 sec)
Heartbeat CPU 6 instructions: 170000006 cycles: 42511241 heartbeat IPC: 4 cumulative IPC: 3.999 (Simulation time: 04 hr 53 min 02 sec)
Heartbeat CPU 7 instructions: 170000003 cycles: 42511255 heartbeat IPC: 4 cumulative IPC: 3.999 (Simulation time: 04 hr 53 min 02 sec)
Heartbeat CPU 15 instructions: 170000003 cycles: 42511340 heartbeat IPC: 4 cumulative IPC: 3.999 (Simulation time: 04 hr 53 min 02 sec)
Heartbeat CPU 2 instructions: 170000006 cycles: 42512866 heartbeat IPC: 4 cumulative IPC: 3.999 (Simulation time: 04 hr 53 min 03 sec)
Heartbeat CPU 10 instructions: 170000006 cycles: 42513051 heartbeat IPC: 4 cumulative IPC: 3.999 (Simulation time: 04 hr 53 min 03 sec)
Heartbeat CPU 1 instructions: 100000017 cycles: 43907195 heartbeat IPC: 2.429 cumulative IPC: 2.278 (Simulation time: 05 hr 01 min 32 sec)
Heartbeat CPU 9 instructions: 100000017 cycles: 43907757 heartbeat IPC: 2.429 cumulative IPC: 2.278 (Simulation time: 05 hr 01 min 32 sec)
Heartbeat CPU 4 instructions: 180000006 cycles: 45010924 heartbeat IPC: 4 cumulative IPC: 3.999 (Simulation time: 05 hr 09 min 19 sec)
Heartbeat CPU 13 instructions: 180000009 cycles: 45011006 heartbeat IPC: 4 cumulative IPC: 3.999 (Simulation time: 05 hr 09 min 19 sec)
Heartbeat CPU 11 instructions: 180000004 cycles: 45011018 heartbeat IPC: 4 cumulative IPC: 3.999 (Simulation time: 05 hr 09 min 19 sec)
Heartbeat CPU 3 instructions: 180000004 cycles: 45011019 heartbeat IPC: 4 cumulative IPC: 3.999 (Simulation time: 05 hr 09 min 19 sec)
Heartbeat CPU 5 instructions: 180000005 cycles: 45011029 heartbeat IPC: 4 cumulative IPC: 3.999 (Simulation time: 05 hr 09 min 19 sec)
Heartbeat CPU 12 instructions: 180000006 cycles: 45011103 heartbeat IPC: 4 cumulative IPC: 3.999 (Simulation time: 05 hr 09 min 19 sec)
Heartbeat CPU 14 instructions: 180000002 cycles: 45011231 heartbeat IPC: 4 cumulative IPC: 3.999 (Simulation time: 05 hr 09 min 19 sec)
Heartbeat CPU 6 instructions: 180000006 cycles: 45011241 heartbeat IPC: 4 cumulative IPC: 3.999 (Simulation time: 05 hr 09 min 19 sec)
Heartbeat CPU 7 instructions: 180000003 cycles: 45011255 heartbeat IPC: 4 cumulative IPC: 3.999 (Simulation time: 05 hr 09 min 19 sec)
Heartbeat CPU 15 instructions: 180000003 cycles: 45011340 heartbeat IPC: 4 cumulative IPC: 3.999 (Simulation time: 05 hr 09 min 19 sec)
Heartbeat CPU 2 instructions: 180000006 cycles: 45012866 heartbeat IPC: 4 cumulative IPC: 3.999 (Simulation time: 05 hr 09 min 20 sec)
Heartbeat CPU 10 instructions: 180000006 cycles: 45013051 heartbeat IPC: 4 cumulative IPC: 3.999 (Simulation time: 05 hr 09 min 20 sec)
*** Reached end of trace: (2, "/home/harshraj/COALESCE-Hashed-Perceptron-Cache-Replacement-Policy/simulator/traces/ocean_8t/ocean2.champsimtrace")
*** Reached end of trace: (10, "/home/harshraj/COALESCE-Hashed-Perceptron-Cache-Replacement-Policy/simulator/traces/ocean_8t/ocean2.champsimtrace")
*** Reached end of trace: (13, "/home/harshraj/COALESCE-Hashed-Perceptron-Cache-Replacement-Policy/simulator/traces/ocean_8t/ocean5.champsimtrace")
*** Reached end of trace: (5, "/home/harshraj/COALESCE-Hashed-Perceptron-Cache-Replacement-Policy/simulator/traces/ocean_8t/ocean5.champsimtrace")
*** Reached end of trace: (4, "/home/harshraj/COALESCE-Hashed-Perceptron-Cache-Replacement-Policy/simulator/traces/ocean_8t/ocean4.champsimtrace")
*** Reached end of trace: (12, "/home/harshraj/COALESCE-Hashed-Perceptron-Cache-Replacement-Policy/simulator/traces/ocean_8t/ocean4.champsimtrace")
*** Reached end of trace: (14, "/home/harshraj/COALESCE-Hashed-Perceptron-Cache-Replacement-Policy/simulator/traces/ocean_8t/ocean6.champsimtrace")
*** Reached end of trace: (6, "/home/harshraj/COALESCE-Hashed-Perceptron-Cache-Replacement-Policy/simulator/traces/ocean_8t/ocean6.champsimtrace")
*** Reached end of trace: (11, "/home/harshraj/COALESCE-Hashed-Perceptron-Cache-Replacement-Policy/simulator/traces/ocean_8t/ocean3.champsimtrace")
*** Reached end of trace: (3, "/home/harshraj/COALESCE-Hashed-Perceptron-Cache-Replacement-Policy/simulator/traces/ocean_8t/ocean3.champsimtrace")
*** Reached end of trace: (7, "/home/harshraj/COALESCE-Hashed-Perceptron-Cache-Replacement-Policy/simulator/traces/ocean_8t/ocean7.champsimtrace")
*** Reached end of trace: (15, "/home/harshraj/COALESCE-Hashed-Perceptron-Cache-Replacement-Policy/simulator/traces/ocean_8t/ocean7.champsimtrace")
Heartbeat CPU 4 instructions: 190000006 cycles: 47510924 heartbeat IPC: 4 cumulative IPC: 3.999 (Simulation time: 05 hr 27 min 10 sec)
Heartbeat CPU 13 instructions: 190000009 cycles: 47511006 heartbeat IPC: 4 cumulative IPC: 3.999 (Simulation time: 05 hr 27 min 10 sec)
Heartbeat CPU 11 instructions: 190000004 cycles: 47511018 heartbeat IPC: 4 cumulative IPC: 3.999 (Simulation time: 05 hr 27 min 10 sec)
Heartbeat CPU 3 instructions: 190000004 cycles: 47511019 heartbeat IPC: 4 cumulative IPC: 3.999 (Simulation time: 05 hr 27 min 10 sec)
Heartbeat CPU 5 instructions: 190000005 cycles: 47511029 heartbeat IPC: 4 cumulative IPC: 3.999 (Simulation time: 05 hr 27 min 10 sec)
Heartbeat CPU 12 instructions: 190000006 cycles: 47511103 heartbeat IPC: 4 cumulative IPC: 3.999 (Simulation time: 05 hr 27 min 10 sec)
Heartbeat CPU 14 instructions: 190000002 cycles: 47511231 heartbeat IPC: 4 cumulative IPC: 3.999 (Simulation time: 05 hr 27 min 10 sec)
Heartbeat CPU 6 instructions: 190000006 cycles: 47511241 heartbeat IPC: 4 cumulative IPC: 3.999 (Simulation time: 05 hr 27 min 10 sec)
Heartbeat CPU 7 instructions: 190000003 cycles: 47511255 heartbeat IPC: 4 cumulative IPC: 3.999 (Simulation time: 05 hr 27 min 10 sec)
Heartbeat CPU 15 instructions: 190000003 cycles: 47511340 heartbeat IPC: 4 cumulative IPC: 3.999 (Simulation time: 05 hr 27 min 10 sec)
Heartbeat CPU 2 instructions: 190000006 cycles: 47512866 heartbeat IPC: 4 cumulative IPC: 3.999 (Simulation time: 05 hr 27 min 10 sec)
Heartbeat CPU 10 instructions: 190000006 cycles: 47513051 heartbeat IPC: 4 cumulative IPC: 3.999 (Simulation time: 05 hr 27 min 10 sec)
Heartbeat CPU 1 instructions: 110000018 cycles: 48025044 heartbeat IPC: 2.428 cumulative IPC: 2.29 (Simulation time: 05 hr 30 min 46 sec)
Heartbeat CPU 9 instructions: 110000018 cycles: 48025045 heartbeat IPC: 2.429 cumulative IPC: 2.29 (Simulation time: 05 hr 30 min 46 sec)
Heartbeat CPU 4 instructions: 200000006 cycles: 50010924 heartbeat IPC: 4 cumulative IPC: 3.999 (Simulation time: 05 hr 44 min 21 sec)
Heartbeat CPU 13 instructions: 200000009 cycles: 50011006 heartbeat IPC: 4 cumulative IPC: 3.999 (Simulation time: 05 hr 44 min 21 sec)
Heartbeat CPU 11 instructions: 200000004 cycles: 50011018 heartbeat IPC: 4 cumulative IPC: 3.999 (Simulation time: 05 hr 44 min 21 sec)
Heartbeat CPU 3 instructions: 200000004 cycles: 50011019 heartbeat IPC: 4 cumulative IPC: 3.999 (Simulation time: 05 hr 44 min 21 sec)
Heartbeat CPU 5 instructions: 200000005 cycles: 50011029 heartbeat IPC: 4 cumulative IPC: 3.999 (Simulation time: 05 hr 44 min 21 sec)
Heartbeat CPU 12 instructions: 200000006 cycles: 50011103 heartbeat IPC: 4 cumulative IPC: 3.999 (Simulation time: 05 hr 44 min 21 sec)
Heartbeat CPU 14 instructions: 200000002 cycles: 50011231 heartbeat IPC: 4 cumulative IPC: 3.999 (Simulation time: 05 hr 44 min 21 sec)
Heartbeat CPU 6 instructions: 200000006 cycles: 50011241 heartbeat IPC: 4 cumulative IPC: 3.999 (Simulation time: 05 hr 44 min 21 sec)
Heartbeat CPU 7 instructions: 200000003 cycles: 50011255 heartbeat IPC: 4 cumulative IPC: 3.999 (Simulation time: 05 hr 44 min 21 sec)
Heartbeat CPU 15 instructions: 200000003 cycles: 50011340 heartbeat IPC: 4 cumulative IPC: 3.999 (Simulation time: 05 hr 44 min 21 sec)
Heartbeat CPU 2 instructions: 200000006 cycles: 50012866 heartbeat IPC: 4 cumulative IPC: 3.999 (Simulation time: 05 hr 44 min 22 sec)
Heartbeat CPU 10 instructions: 200000006 cycles: 50013051 heartbeat IPC: 4 cumulative IPC: 3.999 (Simulation time: 05 hr 44 min 22 sec)
Heartbeat CPU 4 instructions: 210000006 cycles: 52510924 heartbeat IPC: 4 cumulative IPC: 3.999 (Simulation time: 06 hr 01 min 05 sec)
Heartbeat CPU 13 instructions: 210000009 cycles: 52511006 heartbeat IPC: 4 cumulative IPC: 3.999 (Simulation time: 06 hr 01 min 05 sec)
Heartbeat CPU 11 instructions: 210000004 cycles: 52511018 heartbeat IPC: 4 cumulative IPC: 3.999 (Simulation time: 06 hr 01 min 05 sec)
Heartbeat CPU 3 instructions: 210000004 cycles: 52511019 heartbeat IPC: 4 cumulative IPC: 3.999 (Simulation time: 06 hr 01 min 05 sec)
Heartbeat CPU 5 instructions: 210000005 cycles: 52511029 heartbeat IPC: 4 cumulative IPC: 3.999 (Simulation time: 06 hr 01 min 05 sec)
Heartbeat CPU 12 instructions: 210000006 cycles: 52511103 heartbeat IPC: 4 cumulative IPC: 3.999 (Simulation time: 06 hr 01 min 05 sec)
Heartbeat CPU 14 instructions: 210000002 cycles: 52511231 heartbeat IPC: 4 cumulative IPC: 3.999 (Simulation time: 06 hr 01 min 05 sec)
Heartbeat CPU 6 instructions: 210000006 cycles: 52511241 heartbeat IPC: 4 cumulative IPC: 3.999 (Simulation time: 06 hr 01 min 05 sec)
Heartbeat CPU 7 instructions: 210000003 cycles: 52511255 heartbeat IPC: 4 cumulative IPC: 3.999 (Simulation time: 06 hr 01 min 05 sec)
Heartbeat CPU 15 instructions: 210000003 cycles: 52511340 heartbeat IPC: 4 cumulative IPC: 3.999 (Simulation time: 06 hr 01 min 05 sec)
Heartbeat CPU 2 instructions: 210000006 cycles: 52512866 heartbeat IPC: 4 cumulative IPC: 3.999 (Simulation time: 06 hr 01 min 06 sec)
Heartbeat CPU 10 instructions: 210000006 cycles: 52513051 heartbeat IPC: 4 cumulative IPC: 3.999 (Simulation time: 06 hr 01 min 06 sec)
Heartbeat CPU 9 instructions: 120000018 cycles: 52960490 heartbeat IPC: 2.026 cumulative IPC: 2.266 (Simulation time: 06 hr 03 min 35 sec)
Heartbeat CPU 1 instructions: 120000018 cycles: 52960491 heartbeat IPC: 2.026 cumulative IPC: 2.266 (Simulation time: 06 hr 03 min 35 sec)
Heartbeat CPU 4 instructions: 220000006 cycles: 55010924 heartbeat IPC: 4 cumulative IPC: 3.999 (Simulation time: 06 hr 17 min 59 sec)
Heartbeat CPU 13 instructions: 220000009 cycles: 55011006 heartbeat IPC: 4 cumulative IPC: 3.999 (Simulation time: 06 hr 17 min 59 sec)
Heartbeat CPU 11 instructions: 220000004 cycles: 55011018 heartbeat IPC: 4 cumulative IPC: 3.999 (Simulation time: 06 hr 17 min 59 sec)
Heartbeat CPU 3 instructions: 220000004 cycles: 55011019 heartbeat IPC: 4 cumulative IPC: 3.999 (Simulation time: 06 hr 17 min 59 sec)
Heartbeat CPU 5 instructions: 220000005 cycles: 55011029 heartbeat IPC: 4 cumulative IPC: 3.999 (Simulation time: 06 hr 17 min 59 sec)
Heartbeat CPU 12 instructions: 220000006 cycles: 55011103 heartbeat IPC: 4 cumulative IPC: 3.999 (Simulation time: 06 hr 17 min 59 sec)
Heartbeat CPU 14 instructions: 220000002 cycles: 55011231 heartbeat IPC: 4 cumulative IPC: 3.999 (Simulation time: 06 hr 17 min 59 sec)
Heartbeat CPU 6 instructions: 220000006 cycles: 55011241 heartbeat IPC: 4 cumulative IPC: 3.999 (Simulation time: 06 hr 17 min 59 sec)
Heartbeat CPU 7 instructions: 220000003 cycles: 55011255 heartbeat IPC: 4 cumulative IPC: 3.999 (Simulation time: 06 hr 17 min 59 sec)
Heartbeat CPU 15 instructions: 220000003 cycles: 55011340 heartbeat IPC: 4 cumulative IPC: 3.999 (Simulation time: 06 hr 17 min 59 sec)
Heartbeat CPU 2 instructions: 220000006 cycles: 55012866 heartbeat IPC: 4 cumulative IPC: 3.999 (Simulation time: 06 hr 18 min 00 sec)
Heartbeat CPU 10 instructions: 220000006 cycles: 55013051 heartbeat IPC: 4 cumulative IPC: 3.999 (Simulation time: 06 hr 18 min 00 sec)
*** Reached end of trace: (2, "/home/harshraj/COALESCE-Hashed-Perceptron-Cache-Replacement-Policy/simulator/traces/ocean_8t/ocean2.champsimtrace")
*** Reached end of trace: (10, "/home/harshraj/COALESCE-Hashed-Perceptron-Cache-Replacement-Policy/simulator/traces/ocean_8t/ocean2.champsimtrace")
*** Reached end of trace: (13, "/home/harshraj/COALESCE-Hashed-Perceptron-Cache-Replacement-Policy/simulator/traces/ocean_8t/ocean5.champsimtrace")
*** Reached end of trace: (5, "/home/harshraj/COALESCE-Hashed-Perceptron-Cache-Replacement-Policy/simulator/traces/ocean_8t/ocean5.champsimtrace")
*** Reached end of trace: (4, "/home/harshraj/COALESCE-Hashed-Perceptron-Cache-Replacement-Policy/simulator/traces/ocean_8t/ocean4.champsimtrace")
*** Reached end of trace: (12, "/home/harshraj/COALESCE-Hashed-Perceptron-Cache-Replacement-Policy/simulator/traces/ocean_8t/ocean4.champsimtrace")
*** Reached end of trace: (14, "/home/harshraj/COALESCE-Hashed-Perceptron-Cache-Replacement-Policy/simulator/traces/ocean_8t/ocean6.champsimtrace")
*** Reached end of trace: (6, "/home/harshraj/COALESCE-Hashed-Perceptron-Cache-Replacement-Policy/simulator/traces/ocean_8t/ocean6.champsimtrace")
*** Reached end of trace: (11, "/home/harshraj/COALESCE-Hashed-Perceptron-Cache-Replacement-Policy/simulator/traces/ocean_8t/ocean3.champsimtrace")
*** Reached end of trace: (3, "/home/harshraj/COALESCE-Hashed-Perceptron-Cache-Replacement-Policy/simulator/traces/ocean_8t/ocean3.champsimtrace")
*** Reached end of trace: (7, "/home/harshraj/COALESCE-Hashed-Perceptron-Cache-Replacement-Policy/simulator/traces/ocean_8t/ocean7.champsimtrace")
*** Reached end of trace: (15, "/home/harshraj/COALESCE-Hashed-Perceptron-Cache-Replacement-Policy/simulator/traces/ocean_8t/ocean7.champsimtrace")
Heartbeat CPU 9 instructions: 130000019 cycles: 57453524 heartbeat IPC: 2.226 cumulative IPC: 2.263 (Simulation time: 06 hr 34 min 55 sec)
Heartbeat CPU 1 instructions: 130000019 cycles: 57453529 heartbeat IPC: 2.226 cumulative IPC: 2.263 (Simulation time: 06 hr 34 min 55 sec)
Heartbeat CPU 4 instructions: 230000006 cycles: 57510924 heartbeat IPC: 4 cumulative IPC: 3.999 (Simulation time: 06 hr 35 min 14 sec)
Heartbeat CPU 13 instructions: 230000009 cycles: 57511006 heartbeat IPC: 4 cumulative IPC: 3.999 (Simulation time: 06 hr 35 min 14 sec)
Heartbeat CPU 11 instructions: 230000004 cycles: 57511018 heartbeat IPC: 4 cumulative IPC: 3.999 (Simulation time: 06 hr 35 min 14 sec)
Heartbeat CPU 3 instructions: 230000004 cycles: 57511019 heartbeat IPC: 4 cumulative IPC: 3.999 (Simulation time: 06 hr 35 min 14 sec)
Heartbeat CPU 5 instructions: 230000005 cycles: 57511029 heartbeat IPC: 4 cumulative IPC: 3.999 (Simulation time: 06 hr 35 min 14 sec)
Heartbeat CPU 12 instructions: 230000006 cycles: 57511103 heartbeat IPC: 4 cumulative IPC: 3.999 (Simulation time: 06 hr 35 min 14 sec)
Heartbeat CPU 14 instructions: 230000002 cycles: 57511231 heartbeat IPC: 4 cumulative IPC: 3.999 (Simulation time: 06 hr 35 min 14 sec)
Heartbeat CPU 6 instructions: 230000006 cycles: 57511241 heartbeat IPC: 4 cumulative IPC: 3.999 (Simulation time: 06 hr 35 min 14 sec)
Heartbeat CPU 7 instructions: 230000003 cycles: 57511255 heartbeat IPC: 4 cumulative IPC: 3.999 (Simulation time: 06 hr 35 min 14 sec)
Heartbeat CPU 15 instructions: 230000003 cycles: 57511340 heartbeat IPC: 4 cumulative IPC: 3.999 (Simulation time: 06 hr 35 min 14 sec)
Heartbeat CPU 2 instructions: 230000006 cycles: 57512866 heartbeat IPC: 4 cumulative IPC: 3.999 (Simulation time: 06 hr 35 min 15 sec)
Heartbeat CPU 10 instructions: 230000006 cycles: 57513051 heartbeat IPC: 4 cumulative IPC: 3.999 (Simulation time: 06 hr 35 min 15 sec)
*** Reached end of trace: (9, "/home/harshraj/COALESCE-Hashed-Perceptron-Cache-Replacement-Policy/simulator/traces/ocean_8t/ocean1.champsimtrace")
*** Reached end of trace: (1, "/home/harshraj/COALESCE-Hashed-Perceptron-Cache-Replacement-Policy/simulator/traces/ocean_8t/ocean1.champsimtrace")
Heartbeat CPU 4 instructions: 240000006 cycles: 60010924 heartbeat IPC: 4 cumulative IPC: 3.999 (Simulation time: 06 hr 53 min 50 sec)
Heartbeat CPU 13 instructions: 240000009 cycles: 60011006 heartbeat IPC: 4 cumulative IPC: 3.999 (Simulation time: 06 hr 53 min 50 sec)
Heartbeat CPU 11 instructions: 240000004 cycles: 60011018 heartbeat IPC: 4 cumulative IPC: 3.999 (Simulation time: 06 hr 53 min 50 sec)
Heartbeat CPU 3 instructions: 240000004 cycles: 60011019 heartbeat IPC: 4 cumulative IPC: 3.999 (Simulation time: 06 hr 53 min 50 sec)
Heartbeat CPU 5 instructions: 240000005 cycles: 60011029 heartbeat IPC: 4 cumulative IPC: 3.999 (Simulation time: 06 hr 53 min 50 sec)
Heartbeat CPU 12 instructions: 240000006 cycles: 60011103 heartbeat IPC: 4 cumulative IPC: 3.999 (Simulation time: 06 hr 53 min 50 sec)
Heartbeat CPU 14 instructions: 240000002 cycles: 60011231 heartbeat IPC: 4 cumulative IPC: 3.999 (Simulation time: 06 hr 53 min 50 sec)
Heartbeat CPU 6 instructions: 240000006 cycles: 60011241 heartbeat IPC: 4 cumulative IPC: 3.999 (Simulation time: 06 hr 53 min 50 sec)
Heartbeat CPU 7 instructions: 240000003 cycles: 60011255 heartbeat IPC: 4 cumulative IPC: 3.999 (Simulation time: 06 hr 53 min 50 sec)
Heartbeat CPU 15 instructions: 240000003 cycles: 60011340 heartbeat IPC: 4 cumulative IPC: 3.999 (Simulation time: 06 hr 53 min 50 sec)
Heartbeat CPU 2 instructions: 240000006 cycles: 60012866 heartbeat IPC: 4 cumulative IPC: 3.999 (Simulation time: 06 hr 53 min 51 sec)
Heartbeat CPU 10 instructions: 240000006 cycles: 60013051 heartbeat IPC: 4 cumulative IPC: 3.999 (Simulation time: 06 hr 53 min 51 sec)
Heartbeat CPU 1 instructions: 140000019 cycles: 61202133 heartbeat IPC: 2.668 cumulative IPC: 2.288 (Simulation time: 07 hr 02 min 16 sec)
Heartbeat CPU 9 instructions: 140000019 cycles: 61202146 heartbeat IPC: 2.668 cumulative IPC: 2.288 (Simulation time: 07 hr 02 min 16 sec)
Heartbeat CPU 8 instructions: 30000005 cycles: 61750030 heartbeat IPC: 0.4988 cumulative IPC: 0.4858 (Simulation time: 07 hr 05 min 46 sec)
Heartbeat CPU 0 instructions: 30000005 cycles: 61757616 heartbeat IPC: 0.4986 cumulative IPC: 0.4858 (Simulation time: 07 hr 05 min 49 sec)
Heartbeat CPU 4 instructions: 250000006 cycles: 62510924 heartbeat IPC: 4 cumulative IPC: 3.999 (Simulation time: 07 hr 10 min 30 sec)
Heartbeat CPU 13 instructions: 250000009 cycles: 62511006 heartbeat IPC: 4 cumulative IPC: 3.999 (Simulation time: 07 hr 10 min 30 sec)
Heartbeat CPU 11 instructions: 250000004 cycles: 62511018 heartbeat IPC: 4 cumulative IPC: 3.999 (Simulation time: 07 hr 10 min 30 sec)
Heartbeat CPU 3 instructions: 250000004 cycles: 62511019 heartbeat IPC: 4 cumulative IPC: 3.999 (Simulation time: 07 hr 10 min 30 sec)
Heartbeat CPU 5 instructions: 250000005 cycles: 62511029 heartbeat IPC: 4 cumulative IPC: 3.999 (Simulation time: 07 hr 10 min 30 sec)
Heartbeat CPU 12 instructions: 250000006 cycles: 62511103 heartbeat IPC: 4 cumulative IPC: 3.999 (Simulation time: 07 hr 10 min 30 sec)
Heartbeat CPU 14 instructions: 250000002 cycles: 62511231 heartbeat IPC: 4 cumulative IPC: 3.999 (Simulation time: 07 hr 10 min 30 sec)
Heartbeat CPU 6 instructions: 250000006 cycles: 62511241 heartbeat IPC: 4 cumulative IPC: 3.999 (Simulation time: 07 hr 10 min 30 sec)
Heartbeat CPU 7 instructions: 250000003 cycles: 62511255 heartbeat IPC: 4 cumulative IPC: 3.999 (Simulation time: 07 hr 10 min 30 sec)
Heartbeat CPU 15 instructions: 250000003 cycles: 62511340 heartbeat IPC: 4 cumulative IPC: 3.999 (Simulation time: 07 hr 10 min 30 sec)
Heartbeat CPU 2 instructions: 250000006 cycles: 62512866 heartbeat IPC: 4 cumulative IPC: 3.999 (Simulation time: 07 hr 10 min 31 sec)
Heartbeat CPU 10 instructions: 250000006 cycles: 62513051 heartbeat IPC: 4 cumulative IPC: 3.999 (Simulation time: 07 hr 10 min 31 sec)
Heartbeat CPU 4 instructions: 260000006 cycles: 65010924 heartbeat IPC: 4 cumulative IPC: 3.999 (Simulation time: 07 hr 28 min 29 sec)
Heartbeat CPU 13 instructions: 260000009 cycles: 65011006 heartbeat IPC: 4 cumulative IPC: 3.999 (Simulation time: 07 hr 28 min 29 sec)
Heartbeat CPU 11 instructions: 260000004 cycles: 65011018 heartbeat IPC: 4 cumulative IPC: 3.999 (Simulation time: 07 hr 28 min 29 sec)
Heartbeat CPU 3 instructions: 260000004 cycles: 65011019 heartbeat IPC: 4 cumulative IPC: 3.999 (Simulation time: 07 hr 28 min 29 sec)
Heartbeat CPU 5 instructions: 260000005 cycles: 65011029 heartbeat IPC: 4 cumulative IPC: 3.999 (Simulation time: 07 hr 28 min 29 sec)
Heartbeat CPU 12 instructions: 260000006 cycles: 65011103 heartbeat IPC: 4 cumulative IPC: 3.999 (Simulation time: 07 hr 28 min 29 sec)
Heartbeat CPU 14 instructions: 260000002 cycles: 65011231 heartbeat IPC: 4 cumulative IPC: 3.999 (Simulation time: 07 hr 28 min 29 sec)
Heartbeat CPU 6 instructions: 260000006 cycles: 65011241 heartbeat IPC: 4 cumulative IPC: 3.999 (Simulation time: 07 hr 28 min 29 sec)
Heartbeat CPU 7 instructions: 260000003 cycles: 65011255 heartbeat IPC: 4 cumulative IPC: 3.999 (Simulation time: 07 hr 28 min 29 sec)
Heartbeat CPU 15 instructions: 260000003 cycles: 65011340 heartbeat IPC: 4 cumulative IPC: 3.999 (Simulation time: 07 hr 28 min 29 sec)
Heartbeat CPU 2 instructions: 260000006 cycles: 65012866 heartbeat IPC: 4 cumulative IPC: 3.999 (Simulation time: 07 hr 28 min 30 sec)
Heartbeat CPU 10 instructions: 260000006 cycles: 65013051 heartbeat IPC: 4 cumulative IPC: 3.999 (Simulation time: 07 hr 28 min 30 sec)
Heartbeat CPU 9 instructions: 150000019 cycles: 65417547 heartbeat IPC: 2.372 cumulative IPC: 2.293 (Simulation time: 07 hr 31 min 23 sec)
Heartbeat CPU 1 instructions: 150000022 cycles: 65417549 heartbeat IPC: 2.372 cumulative IPC: 2.293 (Simulation time: 07 hr 31 min 23 sec)
Heartbeat CPU 4 instructions: 270000006 cycles: 67510924 heartbeat IPC: 4 cumulative IPC: 3.999 (Simulation time: 07 hr 45 min 53 sec)
Heartbeat CPU 13 instructions: 270000009 cycles: 67511006 heartbeat IPC: 4 cumulative IPC: 3.999 (Simulation time: 07 hr 45 min 53 sec)
Heartbeat CPU 11 instructions: 270000004 cycles: 67511018 heartbeat IPC: 4 cumulative IPC: 3.999 (Simulation time: 07 hr 45 min 53 sec)
Heartbeat CPU 3 instructions: 270000004 cycles: 67511019 heartbeat IPC: 4 cumulative IPC: 3.999 (Simulation time: 07 hr 45 min 53 sec)
Heartbeat CPU 5 instructions: 270000005 cycles: 67511029 heartbeat IPC: 4 cumulative IPC: 3.999 (Simulation time: 07 hr 45 min 53 sec)
Heartbeat CPU 12 instructions: 270000006 cycles: 67511103 heartbeat IPC: 4 cumulative IPC: 3.999 (Simulation time: 07 hr 45 min 53 sec)
Heartbeat CPU 14 instructions: 270000002 cycles: 67511231 heartbeat IPC: 4 cumulative IPC: 3.999 (Simulation time: 07 hr 45 min 54 sec)
Heartbeat CPU 6 instructions: 270000006 cycles: 67511241 heartbeat IPC: 4 cumulative IPC: 3.999 (Simulation time: 07 hr 45 min 54 sec)
Heartbeat CPU 7 instructions: 270000003 cycles: 67511255 heartbeat IPC: 4 cumulative IPC: 3.999 (Simulation time: 07 hr 45 min 54 sec)
Heartbeat CPU 15 instructions: 270000003 cycles: 67511340 heartbeat IPC: 4 cumulative IPC: 3.999 (Simulation time: 07 hr 45 min 54 sec)
Heartbeat CPU 2 instructions: 270000006 cycles: 67512866 heartbeat IPC: 4 cumulative IPC: 3.999 (Simulation time: 07 hr 45 min 54 sec)
Heartbeat CPU 10 instructions: 270000006 cycles: 67513051 heartbeat IPC: 4 cumulative IPC: 3.999 (Simulation time: 07 hr 45 min 54 sec)
*** Reached end of trace: (2, "/home/harshraj/COALESCE-Hashed-Perceptron-Cache-Replacement-Policy/simulator/traces/ocean_8t/ocean2.champsimtrace")
*** Reached end of trace: (10, "/home/harshraj/COALESCE-Hashed-Perceptron-Cache-Replacement-Policy/simulator/traces/ocean_8t/ocean2.champsimtrace")
*** Reached end of trace: (13, "/home/harshraj/COALESCE-Hashed-Perceptron-Cache-Replacement-Policy/simulator/traces/ocean_8t/ocean5.champsimtrace")
*** Reached end of trace: (5, "/home/harshraj/COALESCE-Hashed-Perceptron-Cache-Replacement-Policy/simulator/traces/ocean_8t/ocean5.champsimtrace")
*** Reached end of trace: (4, "/home/harshraj/COALESCE-Hashed-Perceptron-Cache-Replacement-Policy/simulator/traces/ocean_8t/ocean4.champsimtrace")
*** Reached end of trace: (12, "/home/harshraj/COALESCE-Hashed-Perceptron-Cache-Replacement-Policy/simulator/traces/ocean_8t/ocean4.champsimtrace")
*** Reached end of trace: (14, "/home/harshraj/COALESCE-Hashed-Perceptron-Cache-Replacement-Policy/simulator/traces/ocean_8t/ocean6.champsimtrace")
*** Reached end of trace: (6, "/home/harshraj/COALESCE-Hashed-Perceptron-Cache-Replacement-Policy/simulator/traces/ocean_8t/ocean6.champsimtrace")
*** Reached end of trace: (11, "/home/harshraj/COALESCE-Hashed-Perceptron-Cache-Replacement-Policy/simulator/traces/ocean_8t/ocean3.champsimtrace")
*** Reached end of trace: (3, "/home/harshraj/COALESCE-Hashed-Perceptron-Cache-Replacement-Policy/simulator/traces/ocean_8t/ocean3.champsimtrace")
*** Reached end of trace: (7, "/home/harshraj/COALESCE-Hashed-Perceptron-Cache-Replacement-Policy/simulator/traces/ocean_8t/ocean7.champsimtrace")
*** Reached end of trace: (15, "/home/harshraj/COALESCE-Hashed-Perceptron-Cache-Replacement-Policy/simulator/traces/ocean_8t/ocean7.champsimtrace")
Heartbeat CPU 9 instructions: 160000022 cycles: 69556830 heartbeat IPC: 2.416 cumulative IPC: 2.3 (Simulation time: 08 hr 00 min 32 sec)
Heartbeat CPU 1 instructions: 160000022 cycles: 69556835 heartbeat IPC: 2.416 cumulative IPC: 2.3 (Simulation time: 08 hr 00 min 32 sec)
Heartbeat CPU 4 instructions: 280000006 cycles: 70010924 heartbeat IPC: 4 cumulative IPC: 3.999 (Simulation time: 08 hr 04 min 05 sec)
Heartbeat CPU 13 instructions: 280000009 cycles: 70011006 heartbeat IPC: 4 cumulative IPC: 3.999 (Simulation time: 08 hr 04 min 05 sec)
Heartbeat CPU 11 instructions: 280000004 cycles: 70011018 heartbeat IPC: 4 cumulative IPC: 3.999 (Simulation time: 08 hr 04 min 05 sec)
Heartbeat CPU 3 instructions: 280000004 cycles: 70011019 heartbeat IPC: 4 cumulative IPC: 3.999 (Simulation time: 08 hr 04 min 05 sec)
Heartbeat CPU 5 instructions: 280000005 cycles: 70011029 heartbeat IPC: 4 cumulative IPC: 3.999 (Simulation time: 08 hr 04 min 05 sec)
Heartbeat CPU 12 instructions: 280000006 cycles: 70011103 heartbeat IPC: 4 cumulative IPC: 3.999 (Simulation time: 08 hr 04 min 05 sec)
Heartbeat CPU 14 instructions: 280000002 cycles: 70011231 heartbeat IPC: 4 cumulative IPC: 3.999 (Simulation time: 08 hr 04 min 05 sec)
Heartbeat CPU 6 instructions: 280000006 cycles: 70011241 heartbeat IPC: 4 cumulative IPC: 3.999 (Simulation time: 08 hr 04 min 05 sec)
Heartbeat CPU 7 instructions: 280000003 cycles: 70011255 heartbeat IPC: 4 cumulative IPC: 3.999 (Simulation time: 08 hr 04 min 05 sec)
Heartbeat CPU 15 instructions: 280000003 cycles: 70011340 heartbeat IPC: 4 cumulative IPC: 3.999 (Simulation time: 08 hr 04 min 05 sec)
Heartbeat CPU 2 instructions: 280000006 cycles: 70012866 heartbeat IPC: 4 cumulative IPC: 3.999 (Simulation time: 08 hr 04 min 06 sec)
Heartbeat CPU 10 instructions: 280000006 cycles: 70013051 heartbeat IPC: 4 cumulative IPC: 3.999 (Simulation time: 08 hr 04 min 06 sec)
Heartbeat CPU 4 instructions: 290000006 cycles: 72510924 heartbeat IPC: 4 cumulative IPC: 3.999 (Simulation time: 08 hr 20 min 44 sec)
Heartbeat CPU 13 instructions: 290000009 cycles: 72511006 heartbeat IPC: 4 cumulative IPC: 3.999 (Simulation time: 08 hr 20 min 44 sec)
Heartbeat CPU 11 instructions: 290000004 cycles: 72511018 heartbeat IPC: 4 cumulative IPC: 3.999 (Simulation time: 08 hr 20 min 44 sec)
Heartbeat CPU 3 instructions: 290000004 cycles: 72511019 heartbeat IPC: 4 cumulative IPC: 3.999 (Simulation time: 08 hr 20 min 44 sec)
Heartbeat CPU 5 instructions: 290000005 cycles: 72511029 heartbeat IPC: 4 cumulative IPC: 3.999 (Simulation time: 08 hr 20 min 44 sec)
Heartbeat CPU 12 instructions: 290000006 cycles: 72511103 heartbeat IPC: 4 cumulative IPC: 3.999 (Simulation time: 08 hr 20 min 44 sec)
Heartbeat CPU 14 instructions: 290000002 cycles: 72511231 heartbeat IPC: 4 cumulative IPC: 3.999 (Simulation time: 08 hr 20 min 44 sec)
Heartbeat CPU 6 instructions: 290000006 cycles: 72511241 heartbeat IPC: 4 cumulative IPC: 3.999 (Simulation time: 08 hr 20 min 44 sec)
Heartbeat CPU 7 instructions: 290000003 cycles: 72511255 heartbeat IPC: 4 cumulative IPC: 3.999 (Simulation time: 08 hr 20 min 44 sec)
Heartbeat CPU 15 instructions: 290000003 cycles: 72511340 heartbeat IPC: 4 cumulative IPC: 3.999 (Simulation time: 08 hr 20 min 44 sec)
Heartbeat CPU 2 instructions: 290000006 cycles: 72512866 heartbeat IPC: 4 cumulative IPC: 3.999 (Simulation time: 08 hr 20 min 45 sec)
Heartbeat CPU 10 instructions: 290000006 cycles: 72513051 heartbeat IPC: 4 cumulative IPC: 3.999 (Simulation time: 08 hr 20 min 45 sec)
Heartbeat CPU 4 instructions: 300000006 cycles: 75010924 heartbeat IPC: 4 cumulative IPC: 3.999 (Simulation time: 08 hr 38 min 39 sec)
Heartbeat CPU 13 instructions: 300000009 cycles: 75011006 heartbeat IPC: 4 cumulative IPC: 3.999 (Simulation time: 08 hr 38 min 39 sec)
Heartbeat CPU 11 instructions: 300000004 cycles: 75011018 heartbeat IPC: 4 cumulative IPC: 3.999 (Simulation time: 08 hr 38 min 39 sec)
Heartbeat CPU 3 instructions: 300000004 cycles: 75011019 heartbeat IPC: 4 cumulative IPC: 3.999 (Simulation time: 08 hr 38 min 39 sec)
Heartbeat CPU 5 instructions: 300000005 cycles: 75011029 heartbeat IPC: 4 cumulative IPC: 3.999 (Simulation time: 08 hr 38 min 40 sec)
Heartbeat CPU 12 instructions: 300000006 cycles: 75011103 heartbeat IPC: 4 cumulative IPC: 3.999 (Simulation time: 08 hr 38 min 40 sec)
Heartbeat CPU 14 instructions: 300000002 cycles: 75011231 heartbeat IPC: 4 cumulative IPC: 3.999 (Simulation time: 08 hr 38 min 40 sec)
Heartbeat CPU 6 instructions: 300000006 cycles: 75011241 heartbeat IPC: 4 cumulative IPC: 3.999 (Simulation time: 08 hr 38 min 40 sec)
Heartbeat CPU 7 instructions: 300000003 cycles: 75011255 heartbeat IPC: 4 cumulative IPC: 3.999 (Simulation time: 08 hr 38 min 40 sec)
Heartbeat CPU 15 instructions: 300000003 cycles: 75011340 heartbeat IPC: 4 cumulative IPC: 3.999 (Simulation time: 08 hr 38 min 40 sec)
Heartbeat CPU 2 instructions: 300000006 cycles: 75012866 heartbeat IPC: 4 cumulative IPC: 3.999 (Simulation time: 08 hr 38 min 40 sec)
Heartbeat CPU 10 instructions: 300000006 cycles: 75013051 heartbeat IPC: 4 cumulative IPC: 3.999 (Simulation time: 08 hr 38 min 40 sec)
Heartbeat CPU 9 instructions: 170000025 cycles: 75135714 heartbeat IPC: 1.792 cumulative IPC: 2.263 (Simulation time: 08 hr 39 min 34 sec)
Heartbeat CPU 1 instructions: 170000025 cycles: 75135718 heartbeat IPC: 1.792 cumulative IPC: 2.263 (Simulation time: 08 hr 39 min 34 sec)
Heartbeat CPU 4 instructions: 310000006 cycles: 77510924 heartbeat IPC: 4 cumulative IPC: 3.999 (Simulation time: 08 hr 55 min 46 sec)
Heartbeat CPU 13 instructions: 310000009 cycles: 77511006 heartbeat IPC: 4 cumulative IPC: 3.999 (Simulation time: 08 hr 55 min 46 sec)
Heartbeat CPU 11 instructions: 310000004 cycles: 77511018 heartbeat IPC: 4 cumulative IPC: 3.999 (Simulation time: 08 hr 55 min 46 sec)
Heartbeat CPU 3 instructions: 310000004 cycles: 77511019 heartbeat IPC: 4 cumulative IPC: 3.999 (Simulation time: 08 hr 55 min 46 sec)
Heartbeat CPU 5 instructions: 310000005 cycles: 77511029 heartbeat IPC: 4 cumulative IPC: 3.999 (Simulation time: 08 hr 55 min 46 sec)
Heartbeat CPU 12 instructions: 310000006 cycles: 77511103 heartbeat IPC: 4 cumulative IPC: 3.999 (Simulation time: 08 hr 55 min 46 sec)
Heartbeat CPU 14 instructions: 310000002 cycles: 77511231 heartbeat IPC: 4 cumulative IPC: 3.999 (Simulation time: 08 hr 55 min 46 sec)
Heartbeat CPU 6 instructions: 310000006 cycles: 77511241 heartbeat IPC: 4 cumulative IPC: 3.999 (Simulation time: 08 hr 55 min 46 sec)
Heartbeat CPU 7 instructions: 310000003 cycles: 77511255 heartbeat IPC: 4 cumulative IPC: 3.999 (Simulation time: 08 hr 55 min 46 sec)
Heartbeat CPU 15 instructions: 310000003 cycles: 77511340 heartbeat IPC: 4 cumulative IPC: 3.999 (Simulation time: 08 hr 55 min 46 sec)
Heartbeat CPU 2 instructions: 310000006 cycles: 77512866 heartbeat IPC: 4 cumulative IPC: 3.999 (Simulation time: 08 hr 55 min 47 sec)
Heartbeat CPU 10 instructions: 310000006 cycles: 77513051 heartbeat IPC: 4 cumulative IPC: 3.999 (Simulation time: 08 hr 55 min 47 sec)
Heartbeat CPU 9 instructions: 180000025 cycles: 78688203 heartbeat IPC: 2.815 cumulative IPC: 2.288 (Simulation time: 09 hr 04 min 23 sec)
Heartbeat CPU 1 instructions: 180000025 cycles: 78688205 heartbeat IPC: 2.815 cumulative IPC: 2.288 (Simulation time: 09 hr 04 min 23 sec)
*** Reached end of trace: (2, "/home/harshraj/COALESCE-Hashed-Perceptron-Cache-Replacement-Policy/simulator/traces/ocean_8t/ocean2.champsimtrace")
*** Reached end of trace: (10, "/home/harshraj/COALESCE-Hashed-Perceptron-Cache-Replacement-Policy/simulator/traces/ocean_8t/ocean2.champsimtrace")
*** Reached end of trace: (13, "/home/harshraj/COALESCE-Hashed-Perceptron-Cache-Replacement-Policy/simulator/traces/ocean_8t/ocean5.champsimtrace")
*** Reached end of trace: (5, "/home/harshraj/COALESCE-Hashed-Perceptron-Cache-Replacement-Policy/simulator/traces/ocean_8t/ocean5.champsimtrace")
*** Reached end of trace: (4, "/home/harshraj/COALESCE-Hashed-Perceptron-Cache-Replacement-Policy/simulator/traces/ocean_8t/ocean4.champsimtrace")
*** Reached end of trace: (12, "/home/harshraj/COALESCE-Hashed-Perceptron-Cache-Replacement-Policy/simulator/traces/ocean_8t/ocean4.champsimtrace")
*** Reached end of trace: (14, "/home/harshraj/COALESCE-Hashed-Perceptron-Cache-Replacement-Policy/simulator/traces/ocean_8t/ocean6.champsimtrace")
*** Reached end of trace: (6, "/home/harshraj/COALESCE-Hashed-Perceptron-Cache-Replacement-Policy/simulator/traces/ocean_8t/ocean6.champsimtrace")
*** Reached end of trace: (9, "/home/harshraj/COALESCE-Hashed-Perceptron-Cache-Replacement-Policy/simulator/traces/ocean_8t/ocean1.champsimtrace")
*** Reached end of trace: (1, "/home/harshraj/COALESCE-Hashed-Perceptron-Cache-Replacement-Policy/simulator/traces/ocean_8t/ocean1.champsimtrace")
*** Reached end of trace: (11, "/home/harshraj/COALESCE-Hashed-Perceptron-Cache-Replacement-Policy/simulator/traces/ocean_8t/ocean3.champsimtrace")
*** Reached end of trace: (3, "/home/harshraj/COALESCE-Hashed-Perceptron-Cache-Replacement-Policy/simulator/traces/ocean_8t/ocean3.champsimtrace")
*** Reached end of trace: (7, "/home/harshraj/COALESCE-Hashed-Perceptron-Cache-Replacement-Policy/simulator/traces/ocean_8t/ocean7.champsimtrace")
*** Reached end of trace: (15, "/home/harshraj/COALESCE-Hashed-Perceptron-Cache-Replacement-Policy/simulator/traces/ocean_8t/ocean7.champsimtrace")
Heartbeat CPU 4 instructions: 320000006 cycles: 80010924 heartbeat IPC: 4 cumulative IPC: 3.999 (Simulation time: 09 hr 13 min 28 sec)
Heartbeat CPU 13 instructions: 320000009 cycles: 80011006 heartbeat IPC: 4 cumulative IPC: 3.999 (Simulation time: 09 hr 13 min 28 sec)
Heartbeat CPU 11 instructions: 320000004 cycles: 80011018 heartbeat IPC: 4 cumulative IPC: 3.999 (Simulation time: 09 hr 13 min 28 sec)
Heartbeat CPU 3 instructions: 320000004 cycles: 80011019 heartbeat IPC: 4 cumulative IPC: 3.999 (Simulation time: 09 hr 13 min 28 sec)
Heartbeat CPU 5 instructions: 320000005 cycles: 80011029 heartbeat IPC: 4 cumulative IPC: 3.999 (Simulation time: 09 hr 13 min 28 sec)
Heartbeat CPU 12 instructions: 320000006 cycles: 80011103 heartbeat IPC: 4 cumulative IPC: 3.999 (Simulation time: 09 hr 13 min 28 sec)
Heartbeat CPU 14 instructions: 320000002 cycles: 80011231 heartbeat IPC: 4 cumulative IPC: 3.999 (Simulation time: 09 hr 13 min 28 sec)
Heartbeat CPU 6 instructions: 320000006 cycles: 80011241 heartbeat IPC: 4 cumulative IPC: 3.999 (Simulation time: 09 hr 13 min 28 sec)
Heartbeat CPU 7 instructions: 320000003 cycles: 80011255 heartbeat IPC: 4 cumulative IPC: 3.999 (Simulation time: 09 hr 13 min 28 sec)
Heartbeat CPU 15 instructions: 320000003 cycles: 80011340 heartbeat IPC: 4 cumulative IPC: 3.999 (Simulation time: 09 hr 13 min 28 sec)
Heartbeat CPU 2 instructions: 320000006 cycles: 80012866 heartbeat IPC: 4 cumulative IPC: 3.999 (Simulation time: 09 hr 13 min 29 sec)
Heartbeat CPU 10 instructions: 320000006 cycles: 80013051 heartbeat IPC: 4 cumulative IPC: 3.999 (Simulation time: 09 hr 13 min 29 sec)
Heartbeat CPU 4 instructions: 330000006 cycles: 82510924 heartbeat IPC: 4 cumulative IPC: 3.999 (Simulation time: 09 hr 30 min 32 sec)
Heartbeat CPU 13 instructions: 330000009 cycles: 82511006 heartbeat IPC: 4 cumulative IPC: 3.999 (Simulation time: 09 hr 30 min 32 sec)
Heartbeat CPU 11 instructions: 330000004 cycles: 82511018 heartbeat IPC: 4 cumulative IPC: 3.999 (Simulation time: 09 hr 30 min 32 sec)
Heartbeat CPU 3 instructions: 330000004 cycles: 82511019 heartbeat IPC: 4 cumulative IPC: 3.999 (Simulation time: 09 hr 30 min 32 sec)
Heartbeat CPU 5 instructions: 330000005 cycles: 82511029 heartbeat IPC: 4 cumulative IPC: 3.999 (Simulation time: 09 hr 30 min 32 sec)
Heartbeat CPU 12 instructions: 330000006 cycles: 82511103 heartbeat IPC: 4 cumulative IPC: 3.999 (Simulation time: 09 hr 30 min 32 sec)
Heartbeat CPU 14 instructions: 330000002 cycles: 82511231 heartbeat IPC: 4 cumulative IPC: 3.999 (Simulation time: 09 hr 30 min 32 sec)
Heartbeat CPU 6 instructions: 330000006 cycles: 82511241 heartbeat IPC: 4 cumulative IPC: 3.999 (Simulation time: 09 hr 30 min 32 sec)
Heartbeat CPU 7 instructions: 330000003 cycles: 82511255 heartbeat IPC: 4 cumulative IPC: 3.999 (Simulation time: 09 hr 30 min 32 sec)
Heartbeat CPU 15 instructions: 330000003 cycles: 82511340 heartbeat IPC: 4 cumulative IPC: 3.999 (Simulation time: 09 hr 30 min 32 sec)
Heartbeat CPU 2 instructions: 330000006 cycles: 82512866 heartbeat IPC: 4 cumulative IPC: 3.999 (Simulation time: 09 hr 30 min 32 sec)
Heartbeat CPU 10 instructions: 330000006 cycles: 82513051 heartbeat IPC: 4 cumulative IPC: 3.999 (Simulation time: 09 hr 30 min 32 sec)
Heartbeat CPU 1 instructions: 190000028 cycles: 82724665 heartbeat IPC: 2.477 cumulative IPC: 2.297 (Simulation time: 09 hr 32 min 01 sec)
Heartbeat CPU 9 instructions: 190000028 cycles: 82724700 heartbeat IPC: 2.477 cumulative IPC: 2.297 (Simulation time: 09 hr 32 min 01 sec)
Heartbeat CPU 8 instructions: 40000006 cycles: 84169288 heartbeat IPC: 0.446 cumulative IPC: 0.4752 (Simulation time: 09 hr 41 min 59 sec)
Heartbeat CPU 0 instructions: 40000005 cycles: 84169756 heartbeat IPC: 0.4462 cumulative IPC: 0.4752 (Simulation time: 09 hr 42 min 00 sec)
Heartbeat CPU 4 instructions: 340000006 cycles: 85010924 heartbeat IPC: 4 cumulative IPC: 3.999 (Simulation time: 09 hr 47 min 40 sec)
Heartbeat CPU 13 instructions: 340000009 cycles: 85011006 heartbeat IPC: 4 cumulative IPC: 3.999 (Simulation time: 09 hr 47 min 40 sec)
Heartbeat CPU 11 instructions: 340000004 cycles: 85011018 heartbeat IPC: 4 cumulative IPC: 3.999 (Simulation time: 09 hr 47 min 40 sec)
Heartbeat CPU 3 instructions: 340000004 cycles: 85011019 heartbeat IPC: 4 cumulative IPC: 3.999 (Simulation time: 09 hr 47 min 40 sec)
Heartbeat CPU 5 instructions: 340000005 cycles: 85011029 heartbeat IPC: 4 cumulative IPC: 3.999 (Simulation time: 09 hr 47 min 40 sec)
Heartbeat CPU 12 instructions: 340000006 cycles: 85011103 heartbeat IPC: 4 cumulative IPC: 3.999 (Simulation time: 09 hr 47 min 40 sec)
Heartbeat CPU 14 instructions: 340000002 cycles: 85011231 heartbeat IPC: 4 cumulative IPC: 3.999 (Simulation time: 09 hr 47 min 40 sec)
Heartbeat CPU 6 instructions: 340000006 cycles: 85011241 heartbeat IPC: 4 cumulative IPC: 3.999 (Simulation time: 09 hr 47 min 40 sec)
Heartbeat CPU 7 instructions: 340000003 cycles: 85011255 heartbeat IPC: 4 cumulative IPC: 3.999 (Simulation time: 09 hr 47 min 40 sec)
Heartbeat CPU 15 instructions: 340000003 cycles: 85011340 heartbeat IPC: 4 cumulative IPC: 3.999 (Simulation time: 09 hr 47 min 40 sec)
Heartbeat CPU 2 instructions: 340000006 cycles: 85012866 heartbeat IPC: 4 cumulative IPC: 3.999 (Simulation time: 09 hr 47 min 41 sec)
Heartbeat CPU 10 instructions: 340000006 cycles: 85013051 heartbeat IPC: 4 cumulative IPC: 3.999 (Simulation time: 09 hr 47 min 41 sec)
Heartbeat CPU 9 instructions: 200000029 cycles: 86832073 heartbeat IPC: 2.435 cumulative IPC: 2.303 (Simulation time: 09 hr 59 min 13 sec)
Heartbeat CPU 1 instructions: 200000029 cycles: 86832075 heartbeat IPC: 2.435 cumulative IPC: 2.303 (Simulation time: 09 hr 59 min 13 sec)
Heartbeat CPU 4 instructions: 350000006 cycles: 87510924 heartbeat IPC: 4 cumulative IPC: 4 (Simulation time: 10 hr 04 min 05 sec)
Heartbeat CPU 13 instructions: 350000009 cycles: 87511006 heartbeat IPC: 4 cumulative IPC: 3.999 (Simulation time: 10 hr 04 min 05 sec)
Heartbeat CPU 11 instructions: 350000004 cycles: 87511018 heartbeat IPC: 4 cumulative IPC: 3.999 (Simulation time: 10 hr 04 min 05 sec)
Heartbeat CPU 3 instructions: 350000004 cycles: 87511019 heartbeat IPC: 4 cumulative IPC: 3.999 (Simulation time: 10 hr 04 min 05 sec)
Heartbeat CPU 5 instructions: 350000005 cycles: 87511029 heartbeat IPC: 4 cumulative IPC: 3.999 (Simulation time: 10 hr 04 min 05 sec)
Heartbeat CPU 12 instructions: 350000006 cycles: 87511103 heartbeat IPC: 4 cumulative IPC: 3.999 (Simulation time: 10 hr 04 min 05 sec)
Heartbeat CPU 14 instructions: 350000002 cycles: 87511231 heartbeat IPC: 4 cumulative IPC: 3.999 (Simulation time: 10 hr 04 min 05 sec)
Heartbeat CPU 6 instructions: 350000006 cycles: 87511241 heartbeat IPC: 4 cumulative IPC: 3.999 (Simulation time: 10 hr 04 min 05 sec)
Heartbeat CPU 7 instructions: 350000003 cycles: 87511255 heartbeat IPC: 4 cumulative IPC: 3.999 (Simulation time: 10 hr 04 min 05 sec)
Heartbeat CPU 15 instructions: 350000003 cycles: 87511340 heartbeat IPC: 4 cumulative IPC: 3.999 (Simulation time: 10 hr 04 min 05 sec)
Heartbeat CPU 2 instructions: 350000006 cycles: 87512866 heartbeat IPC: 4 cumulative IPC: 3.999 (Simulation time: 10 hr 04 min 05 sec)
Heartbeat CPU 10 instructions: 350000006 cycles: 87513051 heartbeat IPC: 4 cumulative IPC: 3.999 (Simulation time: 10 hr 04 min 05 sec)
Heartbeat CPU 4 instructions: 360000006 cycles: 90010924 heartbeat IPC: 4 cumulative IPC: 4 (Simulation time: 10 hr 21 min 04 sec)
Heartbeat CPU 13 instructions: 360000009 cycles: 90011006 heartbeat IPC: 4 cumulative IPC: 4 (Simulation time: 10 hr 21 min 04 sec)
Heartbeat CPU 11 instructions: 360000004 cycles: 90011018 heartbeat IPC: 4 cumulative IPC: 4 (Simulation time: 10 hr 21 min 04 sec)
Heartbeat CPU 3 instructions: 360000004 cycles: 90011019 heartbeat IPC: 4 cumulative IPC: 4 (Simulation time: 10 hr 21 min 04 sec)
Heartbeat CPU 5 instructions: 360000005 cycles: 90011029 heartbeat IPC: 4 cumulative IPC: 4 (Simulation time: 10 hr 21 min 04 sec)
Heartbeat CPU 12 instructions: 360000006 cycles: 90011103 heartbeat IPC: 4 cumulative IPC: 4 (Simulation time: 10 hr 21 min 04 sec)
[...]
cpu12->cpu12_STLB LOAD         ACCESS:       1162 HIT:       1162 MISS:          0 MSHR_MERGE:          0
cpu12->cpu12_STLB RFO          ACCESS:          0 HIT:          0 MISS:          0 MSHR_MERGE:          0
cpu12->cpu12_STLB PREFETCH     ACCESS:          0 HIT:          0 MISS:          0 MSHR_MERGE:          0
cpu12->cpu12_STLB WRITE        ACCESS:          0 HIT:          0 MISS:          0 MSHR_MERGE:          0
cpu12->cpu12_STLB TRANSLATION  ACCESS:          0 HIT:          0 MISS:          0 MSHR_MERGE:          0
cpu12->cpu12_STLB PREFETCH REQUESTED:          0 ISSUED:          0 USEFUL:          0 USELESS:          0
cpu12->cpu12_STLB AVERAGE MISS LATENCY: - cycles
cpu12_STLB COHERENCE INVALIDATIONS:          0
cpu12_STLB COHERENCE WRITE-HIT OTHER-SHARER EVENTS:          0
cpu12->cpu12_L2C TOTAL        ACCESS:      63427 HIT:      63427 MISS:          0 MSHR_MERGE:          0
cpu12->cpu12_L2C LOAD         ACCESS:      63427 HIT:      63427 MISS:          0 MSHR_MERGE:          0
cpu12->cpu12_L2C RFO          ACCESS:          0 HIT:          0 MISS:          0 MSHR_MERGE:          0
cpu12->cpu12_L2C PREFETCH     ACCESS:          0 HIT:          0 MISS:          0 MSHR_MERGE:          0
cpu12->cpu12_L2C WRITE        ACCESS:          0 HIT:          0 MISS:          0 MSHR_MERGE:          0
cpu12->cpu12_L2C TRANSLATION  ACCESS:          0 HIT:          0 MISS:          0 MSHR_MERGE:          0
cpu12->cpu12_L2C PREFETCH REQUESTED:          0 ISSUED:          0 USEFUL:          0 USELESS:          0
cpu12->cpu12_L2C AVERAGE MISS LATENCY: - cycles
cpu12_L2C COHERENCE INVALIDATIONS:          0
cpu12_L2C COHERENCE WRITE-HIT OTHER-SHARER EVENTS:          0
cpu12->cpu12_L1I TOTAL        ACCESS:  593875351 HIT:  593774071 MISS:     101280 MSHR_MERGE:      37853
cpu12->cpu12_L1I LOAD         ACCESS:  593875351 HIT:  593774071 MISS:     101280 MSHR_MERGE:      37853
cpu12->cpu12_L1I RFO          ACCESS:          0 HIT:          0 MISS:          0 MSHR_MERGE:          0
cpu12->cpu12_L1I PREFETCH     ACCESS:          0 HIT:          0 MISS:          0 MSHR_MERGE:          0
cpu12->cpu12_L1I WRITE        ACCESS:          0 HIT:          0 MISS:          0 MSHR_MERGE:          0
cpu12->cpu12_L1I TRANSLATION  ACCESS:          0 HIT:          0 MISS:          0 MSHR_MERGE:          0
cpu12->cpu12_L1I PREFETCH REQUESTED:          0 ISSUED:          0 USEFUL:          0 USELESS:          0
cpu12->cpu12_L1I AVERAGE MISS LATENCY: 7.2 cycles
cpu12_L1I COHERENCE INVALIDATIONS:          0
cpu12_L1I COHERENCE WRITE-HIT OTHER-SHARER EVENTS:          0
cpu12_L1D COHERENCE INVALIDATIONS:          0
cpu12_L1D COHERENCE WRITE-HIT OTHER-SHARER EVENTS:          0
cpu12->cpu12_ITLB TOTAL        ACCESS:  469498978 HIT:  469496571 MISS:       2407 MSHR_MERGE:       1245
cpu12->cpu12_ITLB LOAD         ACCESS:  469498978 HIT:  469496571 MISS:       2407 MSHR_MERGE:       1245
cpu12->cpu12_ITLB RFO          ACCESS:          0 HIT:          0 MISS:          0 MSHR_MERGE:          0
cpu12->cpu12_ITLB PREFETCH     ACCESS:          0 HIT:          0 MISS:          0 MSHR_MERGE:          0
cpu12->cpu12_ITLB WRITE        ACCESS:          0 HIT:          0 MISS:          0 MSHR_MERGE:          0
cpu12->cpu12_ITLB TRANSLATION  ACCESS:          0 HIT:          0 MISS:          0 MSHR_MERGE:          0
cpu12->cpu12_ITLB PREFETCH REQUESTED:          0 ISSUED:          0 USEFUL:          0 USELESS:          0
cpu12->cpu12_ITLB AVERAGE MISS LATENCY: 4 cycles
cpu12_ITLB COHERENCE INVALIDATIONS:          0
cpu12_ITLB COHERENCE WRITE-HIT OTHER-SHARER EVENTS:          0
cpu12_DTLB COHERENCE INVALIDATIONS:          0
cpu12_DTLB COHERENCE WRITE-HIT OTHER-SHARER EVENTS:          0
cpu11->cpu11_STLB TOTAL        ACCESS:       1328 HIT:       1328 MISS:          0 MSHR_MERGE:          0
cpu11->cpu11_STLB LOAD         ACCESS:       1328 HIT:       1328 MISS:          0 MSHR_MERGE:          0
cpu11->cpu11_STLB RFO          ACCESS:          0 HIT:          0 MISS:          0 MSHR_MERGE:          0
cpu11->cpu11_STLB PREFETCH     ACCESS:          0 HIT:          0 MISS:          0 MSHR_MERGE:          0
cpu11->cpu11_STLB WRITE        ACCESS:          0 HIT:          0 MISS:          0 MSHR_MERGE:          0
cpu11->cpu11_STLB TRANSLATION  ACCESS:          0 HIT:          0 MISS:          0 MSHR_MERGE:          0
cpu11->cpu11_STLB PREFETCH REQUESTED:          0 ISSUED:          0 USEFUL:          0 USELESS:          0
cpu11->cpu11_STLB AVERAGE MISS LATENCY: - cycles
cpu11_STLB COHERENCE INVALIDATIONS:          0
cpu11_STLB COHERENCE WRITE-HIT OTHER-SHARER EVENTS:          0
cpu11->cpu11_L2C TOTAL        ACCESS:     130096 HIT:     130096 MISS:          0 MSHR_MERGE:          0
cpu11->cpu11_L2C LOAD         ACCESS:     130096 HIT:     130096 MISS:          0 MSHR_MERGE:          0
cpu11->cpu11_L2C RFO          ACCESS:          0 HIT:          0 MISS:          0 MSHR_MERGE:          0
cpu11->cpu11_L2C PREFETCH     ACCESS:          0 HIT:          0 MISS:          0 MSHR_MERGE:          0
cpu11->cpu11_L2C WRITE        ACCESS:          0 HIT:          0 MISS:          0 MSHR_MERGE:          0
cpu11->cpu11_L2C TRANSLATION  ACCESS:          0 HIT:          0 MISS:          0 MSHR_MERGE:          0
cpu11->cpu11_L2C PREFETCH REQUESTED:          0 ISSUED:          0 USEFUL:          0 USELESS:          0
cpu11->cpu11_L2C AVERAGE MISS LATENCY: - cycles
cpu11_L2C COHERENCE INVALIDATIONS:          0
cpu11_L2C COHERENCE WRITE-HIT OTHER-SHARER EVENTS:          0
cpu11->cpu11_L1I TOTAL        ACCESS:  593008445 HIT:  592813354 MISS:     195091 MSHR_MERGE:      64995
cpu11->cpu11_L1I LOAD         ACCESS:  593008445 HIT:  592813354 MISS:     195091 MSHR_MERGE:      64995
cpu11->cpu11_L1I RFO          ACCESS:          0 HIT:          0 MISS:          0 MSHR_MERGE:          0
cpu11->cpu11_L1I PREFETCH     ACCESS:          0 HIT:          0 MISS:          0 MSHR_MERGE:          0
cpu11->cpu11_L1I WRITE        ACCESS:          0 HIT:          0 MISS:          0 MSHR_MERGE:          0
cpu11->cpu11_L1I TRANSLATION  ACCESS:          0 HIT:          0 MISS:          0 MSHR_MERGE:          0
cpu11->cpu11_L1I PREFETCH REQUESTED:          0 ISSUED:          0 USEFUL:          0 USELESS:          0
cpu11->cpu11_L1I AVERAGE MISS LATENCY: 7 cycles
cpu11_L1I COHERENCE INVALIDATIONS:          0
cpu11_L1I COHERENCE WRITE-HIT OTHER-SHARER EVENTS:          0
cpu11_L1D COHERENCE INVALIDATIONS:          0
cpu11_L1D COHERENCE WRITE-HIT OTHER-SHARER EVENTS:          0
cpu11->cpu11_ITLB TOTAL        ACCESS:  469617265 HIT:  469614775 MISS:       2490 MSHR_MERGE:       1162
cpu11->cpu11_ITLB LOAD         ACCESS:  469617265 HIT:  469614775 MISS:       2490 MSHR_MERGE:       1162
cpu11->cpu11_ITLB RFO          ACCESS:          0 HIT:          0 MISS:          0 MSHR_MERGE:          0
cpu11->cpu11_ITLB PREFETCH     ACCESS:          0 HIT:          0 MISS:          0 MSHR_MERGE:          0
cpu11->cpu11_ITLB WRITE        ACCESS:          0 HIT:          0 MISS:          0 MSHR_MERGE:          0
cpu11->cpu11_ITLB TRANSLATION  ACCESS:          0 HIT:          0 MISS:          0 MSHR_MERGE:          0
cpu11->cpu11_ITLB PREFETCH REQUESTED:          0 ISSUED:          0 USEFUL:          0 USELESS:          0
cpu11->cpu11_ITLB AVERAGE MISS LATENCY: 4 cycles
cpu11_ITLB COHERENCE INVALIDATIONS:          0
cpu11_ITLB COHERENCE WRITE-HIT OTHER-SHARER EVENTS:          0
cpu11_DTLB COHERENCE INVALIDATIONS:          0
cpu11_DTLB COHERENCE WRITE-HIT OTHER-SHARER EVENTS:          0
cpu10->cpu10_STLB TOTAL        ACCESS:       1340 HIT:       1340 MISS:          0 MSHR_MERGE:          0
cpu10->cpu10_STLB LOAD         ACCESS:       1340 HIT:       1340 MISS:          0 MSHR_MERGE:          0
cpu10->cpu10_STLB RFO          ACCESS:          0 HIT:          0 MISS:          0 MSHR_MERGE:          0
cpu10->cpu10_STLB PREFETCH     ACCESS:          0 HIT:          0 MISS:          0 MSHR_MERGE:          0
cpu10->cpu10_STLB WRITE        ACCESS:          0 HIT:          0 MISS:          0 MSHR_MERGE:          0
cpu10->cpu10_STLB TRANSLATION  ACCESS:          0 HIT:          0 MISS:          0 MSHR_MERGE:          0
cpu10->cpu10_STLB PREFETCH REQUESTED:          0 ISSUED:          0 USEFUL:          0 USELESS:          0
cpu10->cpu10_STLB AVERAGE MISS LATENCY: - cycles
cpu10_STLB COHERENCE INVALIDATIONS:          0
cpu10_STLB COHERENCE WRITE-HIT OTHER-SHARER EVENTS:          0
cpu10->cpu10_L2C TOTAL        ACCESS:     138434 HIT:     138434 MISS:          0 MSHR_MERGE:          0
cpu10->cpu10_L2C LOAD         ACCESS:     138434 HIT:     138434 MISS:          0 MSHR_MERGE:          0
cpu10->cpu10_L2C RFO          ACCESS:          0 HIT:          0 MISS:          0 MSHR_MERGE:          0
cpu10->cpu10_L2C PREFETCH     ACCESS:          0 HIT:          0 MISS:          0 MSHR_MERGE:          0
cpu10->cpu10_L2C WRITE        ACCESS:          0 HIT:          0 MISS:          0 MSHR_MERGE:          0
cpu10->cpu10_L2C TRANSLATION  ACCESS:          0 HIT:          0 MISS:          0 MSHR_MERGE:          0
cpu10->cpu10_L2C PREFETCH REQUESTED:          0 ISSUED:          0 USEFUL:          0 USELESS:          0
cpu10->cpu10_L2C AVERAGE MISS LATENCY: - cycles
cpu10_L2C COHERENCE INVALIDATIONS:          0
cpu10_L2C COHERENCE WRITE-HIT OTHER-SHARER EVENTS:          0
cpu10->cpu10_L1I TOTAL        ACCESS:  594151476 HIT:  593942006 MISS:     209470 MSHR_MERGE:      71036
cpu10->cpu10_L1I LOAD         ACCESS:  594151476 HIT:  593942006 MISS:     209470 MSHR_MERGE:      71036
cpu10->cpu10_L1I RFO          ACCESS:          0 HIT:          0 MISS:          0 MSHR_MERGE:          0
cpu10->cpu10_L1I PREFETCH     ACCESS:          0 HIT:          0 MISS:          0 MSHR_MERGE:          0
cpu10->cpu10_L1I WRITE        ACCESS:          0 HIT:          0 MISS:          0 MSHR_MERGE:          0
cpu10->cpu10_L1I TRANSLATION  ACCESS:          0 HIT:          0 MISS:          0 MSHR_MERGE:          0
cpu10->cpu10_L1I PREFETCH REQUESTED:          0 ISSUED:          0 USEFUL:          0 USELESS:          0
cpu10->cpu10_L1I AVERAGE MISS LATENCY: 7 cycles
cpu10_L1I COHERENCE INVALIDATIONS:          0
cpu10_L1I COHERENCE WRITE-HIT OTHER-SHARER EVENTS:          0
cpu10_L1D COHERENCE INVALIDATIONS:          0
cpu10_L1D COHERENCE WRITE-HIT OTHER-SHARER EVENTS:          0
cpu10->cpu10_ITLB TOTAL        ACCESS:  469448790 HIT:  469446361 MISS:       2429 MSHR_MERGE:       1089
cpu10->cpu10_ITLB LOAD         ACCESS:  469448790 HIT:  469446361 MISS:       2429 MSHR_MERGE:       1089
cpu10->cpu10_ITLB RFO          ACCESS:          0 HIT:          0 MISS:          0 MSHR_MERGE:          0
cpu10->cpu10_ITLB PREFETCH     ACCESS:          0 HIT:          0 MISS:          0 MSHR_MERGE:          0
cpu10->cpu10_ITLB WRITE        ACCESS:          0 HIT:          0 MISS:          0 MSHR_MERGE:          0
cpu10->cpu10_ITLB TRANSLATION  ACCESS:          0 HIT:          0 MISS:          0 MSHR_MERGE:          0
cpu10->cpu10_ITLB PREFETCH REQUESTED:          0 ISSUED:          0 USEFUL:          0 USELESS:          0
cpu10->cpu10_ITLB AVERAGE MISS LATENCY: 4 cycles
cpu10_ITLB COHERENCE INVALIDATIONS:          0
cpu10_ITLB COHERENCE WRITE-HIT OTHER-SHARER EVENTS:          0
cpu10_DTLB COHERENCE INVALIDATIONS:          0
cpu10_DTLB COHERENCE WRITE-HIT OTHER-SHARER EVENTS:          0
cpu0->cpu0_STLB TOTAL        ACCESS:    4703576 HIT:    4555943 MISS:     147633 MSHR_MERGE:          0
cpu0->cpu0_STLB LOAD         ACCESS:    4703576 HIT:    4555943 MISS:     147633 MSHR_MERGE:          0
cpu0->cpu0_STLB RFO          ACCESS:          0 HIT:          0 MISS:          0 MSHR_MERGE:          0
cpu0->cpu0_STLB PREFETCH     ACCESS:          0 HIT:          0 MISS:          0 MSHR_MERGE:          0
cpu0->cpu0_STLB WRITE        ACCESS:          0 HIT:          0 MISS:          0 MSHR_MERGE:          0
cpu0->cpu0_STLB TRANSLATION  ACCESS:          0 HIT:          0 MISS:          0 MSHR_MERGE:          0
cpu0->cpu0_STLB PREFETCH REQUESTED:          0 ISSUED:          0 USEFUL:          0 USELESS:          0
cpu0->cpu0_STLB AVERAGE MISS LATENCY: 793.6 cycles
cpu0_STLB COHERENCE INVALIDATIONS:          0
cpu0_STLB COHERENCE WRITE-HIT OTHER-SHARER EVENTS:          0
cpu0->cpu0_L2C TOTAL        ACCESS:   32519447 HIT:   14849687 MISS:   17669760 MSHR_MERGE:          0
cpu0->cpu0_L2C LOAD         ACCESS:   21230741 HIT:    6741216 MISS:   14489525 MSHR_MERGE:          0
cpu0->cpu0_L2C RFO          ACCESS:    3448754 HIT:     501737 MISS:    2947017 MSHR_MERGE:          0
cpu0->cpu0_L2C PREFETCH     ACCESS:          0 HIT:          0 MISS:          0 MSHR_MERGE:          0
cpu0->cpu0_L2C WRITE        ACCESS:    7567653 HIT:    7566973 MISS:        680 MSHR_MERGE:          0
cpu0->cpu0_L2C TRANSLATION  ACCESS:     272299 HIT:      39761 MISS:     232538 MSHR_MERGE:          0
cpu0->cpu0_L2C PREFETCH REQUESTED:          0 ISSUED:          0 USEFUL:          0 USELESS:          0
cpu0->cpu0_L2C AVERAGE MISS LATENCY: 359.7 cycles
cpu0_L2C COHERENCE INVALIDATIONS:          0
cpu0_L2C COHERENCE WRITE-HIT OTHER-SHARER EVENTS:          0
cpu0->cpu0_L1I TOTAL        ACCESS:   31323592 HIT:   31311617 MISS:      11975 MSHR_MERGE:       5747
cpu0->cpu0_L1I LOAD         ACCESS:   31323592 HIT:   31311617 MISS:      11975 MSHR_MERGE:       5747
cpu0->cpu0_L1I RFO          ACCESS:          0 HIT:          0 MISS:          0 MSHR_MERGE:          0
cpu0->cpu0_L1I PREFETCH     ACCESS:          0 HIT:          0 MISS:          0 MSHR_MERGE:          0
cpu0->cpu0_L1I WRITE        ACCESS:          0 HIT:          0 MISS:          0 MSHR_MERGE:          0
cpu0->cpu0_L1I TRANSLATION  ACCESS:          0 HIT:          0 MISS:          0 MSHR_MERGE:          0
cpu0->cpu0_L1I PREFETCH REQUESTED:          0 ISSUED:          0 USEFUL:          0 USELESS:          0
cpu0->cpu0_L1I AVERAGE MISS LATENCY: 320.3 cycles
cpu0_L1I COHERENCE INVALIDATIONS:          0
cpu0_L1I COHERENCE WRITE-HIT OTHER-SHARER EVENTS:          0
cpu0->cpu0_L1D TOTAL        ACCESS:  102414883 HIT:   73639720 MISS:   28775163 MSHR_MERGE:    3828251
cpu0->cpu0_L1D LOAD         ACCESS:   44187476 HIT:   21988024 MISS:   22199452 MSHR_MERGE:     974678
cpu0->cpu0_L1D RFO          ACCESS:          0 HIT:          0 MISS:          0 MSHR_MERGE:          0
cpu0->cpu0_L1D PREFETCH     ACCESS:          0 HIT:          0 MISS:          0 MSHR_MERGE:          0
cpu0->cpu0_L1D WRITE        ACCESS:   57926990 HIT:   51629356 MISS:    6297634 MSHR_MERGE:    2847795
cpu0->cpu0_L1D TRANSLATION  ACCESS:     300417 HIT:      22340 MISS:     278077 MSHR_MERGE:       5778
cpu0->cpu0_L1D PREFETCH REQUESTED:          0 ISSUED:          0 USEFUL:          0 USELESS:          0
cpu0->cpu0_L1D AVERAGE MISS LATENCY: 262.4 cycles
cpu0_L1D COHERENCE INVALIDATIONS:          0
cpu0_L1D COHERENCE WRITE-HIT OTHER-SHARER EVENTS:          0
cpu0->cpu0_ITLB TOTAL        ACCESS:   30161804 HIT:   30160752 MISS:       1052 MSHR_MERGE:        703
cpu0->cpu0_ITLB LOAD         ACCESS:   30161804 HIT:   30160752 MISS:       1052 MSHR_MERGE:        703
cpu0->cpu0_ITLB RFO          ACCESS:          0 HIT:          0 MISS:          0 MSHR_MERGE:          0
cpu0->cpu0_ITLB PREFETCH     ACCESS:          0 HIT:          0 MISS:          0 MSHR_MERGE:          0
cpu0->cpu0_ITLB WRITE        ACCESS:          0 HIT:          0 MISS:          0 MSHR_MERGE:          0
cpu0->cpu0_ITLB TRANSLATION  ACCESS:          0 HIT:          0 MISS:          0 MSHR_MERGE:          0
cpu0->cpu0_ITLB PREFETCH REQUESTED:          0 ISSUED:          0 USEFUL:          0 USELESS:          0
cpu0->cpu0_ITLB AVERAGE MISS LATENCY: 531.2 cycles
cpu0_ITLB COHERENCE INVALIDATIONS:          0
cpu0_ITLB COHERENCE WRITE-HIT OTHER-SHARER EVENTS:          0
cpu0->cpu0_DTLB TOTAL        ACCESS:   98906524 HIT:   94004320 MISS:    4902204 MSHR_MERGE:     198977
cpu0->cpu0_DTLB LOAD         ACCESS:   98906524 HIT:   94004320 MISS:    4902204 MSHR_MERGE:     198977
cpu0->cpu0_DTLB RFO          ACCESS:          0 HIT:          0 MISS:          0 MSHR_MERGE:          0
cpu0->cpu0_DTLB PREFETCH     ACCESS:          0 HIT:          0 MISS:          0 MSHR_MERGE:          0
cpu0->cpu0_DTLB WRITE        ACCESS:          0 HIT:          0 MISS:          0 MSHR_MERGE:          0
cpu0->cpu0_DTLB TRANSLATION  ACCESS:          0 HIT:          0 MISS:          0 MSHR_MERGE:          0
cpu0->cpu0_DTLB PREFETCH REQUESTED:          0 ISSUED:          0 USEFUL:          0 USELESS:          0
cpu0->cpu0_DTLB AVERAGE MISS LATENCY: 28.9 cycles
cpu0_DTLB COHERENCE INVALIDATIONS:          0
cpu0_DTLB COHERENCE WRITE-HIT OTHER-SHARER EVENTS:          0
cpu0->LLC TOTAL        ACCESS:   24086780 HIT:    2544122 MISS:   21542658 MSHR_MERGE:    9745577
cpu0->LLC LOAD         ACCESS:   14489518 HIT:    1574536 MISS:   12914982 MSHR_MERGE:    8212429
cpu0->LLC RFO          ACCESS:    2947017 HIT:     246776 MISS:    2700241 MSHR_MERGE:    1533148
cpu0->LLC PREFETCH     ACCESS:          0 HIT:          0 MISS:          0 MSHR_MERGE:          0
cpu0->LLC WRITE        ACCESS:    6417707 HIT:     715565 MISS:    5702142 MSHR_MERGE:          0
cpu0->LLC TRANSLATION  ACCESS:     232538 HIT:       7245 MISS:     225293 MSHR_MERGE:          0
cpu0->LLC PREFETCH REQUESTED:          0 ISSUED:          0 USEFUL:          0 USELESS:          0
cpu0->LLC AVERAGE MISS LATENCY: 585.2 cycles
cpu1->LLC TOTAL        ACCESS:    7701983 HIT:     553944 MISS:    7148039 MSHR_MERGE:    3547046
cpu1->LLC LOAD         ACCESS:    7654892 HIT:     552301 MISS:    7102591 MSHR_MERGE:    3547046
cpu1->LLC RFO          ACCESS:          0 HIT:          0 MISS:          0 MSHR_MERGE:          0
cpu1->LLC PREFETCH     ACCESS:          0 HIT:          0 MISS:          0 MSHR_MERGE:          0
cpu1->LLC WRITE        ACCESS:          0 HIT:          0 MISS:          0 MSHR_MERGE:          0
cpu1->LLC TRANSLATION  ACCESS:      47091 HIT:       1643 MISS:      45448 MSHR_MERGE:          0
cpu1->LLC PREFETCH REQUESTED:          0 ISSUED:          0 USEFUL:          0 USELESS:          0
cpu1->LLC AVERAGE MISS LATENCY: 2568 cycles
cpu8->LLC TOTAL        ACCESS:   24082183 HIT:    2541522 MISS:   21540661 MSHR_MERGE:    5695698
cpu8->LLC LOAD         ACCESS:   14486006 HIT:    1555827 MISS:   12930179 MSHR_MERGE:    4557282
cpu8->LLC RFO          ACCESS:    2947352 HIT:     236763 MISS:    2710589 MSHR_MERGE:    1138416
cpu8->LLC PREFETCH     ACCESS:          0 HIT:          0 MISS:          0 MSHR_MERGE:          0
cpu8->LLC WRITE        ACCESS:    6416144 HIT:     716973 MISS:    5699171 MSHR_MERGE:          0
cpu8->LLC TRANSLATION  ACCESS:     232681 HIT:      31959 MISS:     200722 MSHR_MERGE:          0
cpu8->LLC PREFETCH REQUESTED:          0 ISSUED:          0 USEFUL:          0 USELESS:          0
cpu8->LLC AVERAGE MISS LATENCY: 786.3 cycles
cpu9->LLC TOTAL        ACCESS:    7701788 HIT:     553643 MISS:    7148145 MSHR_MERGE:    3536714
cpu9->LLC LOAD         ACCESS:    7654684 HIT:     551946 MISS:    7102738 MSHR_MERGE:    3536714
cpu9->LLC RFO          ACCESS:          0 HIT:          0 MISS:          0 MSHR_MERGE:          0
cpu9->LLC PREFETCH     ACCESS:          0 HIT:          0 MISS:          0 MSHR_MERGE:          0
cpu9->LLC WRITE        ACCESS:          0 HIT:          0 MISS:          0 MSHR_MERGE:          0
cpu9->LLC TRANSLATION  ACCESS:      47104 HIT:       1697 MISS:      45407 MSHR_MERGE:          0
cpu9->LLC PREFETCH REQUESTED:          0 ISSUED:          0 USEFUL:          0 USELESS:          0
cpu9->LLC AVERAGE MISS LATENCY: 2575 cycles
LLC COHERENCE INVALIDATIONS:    1399073
LLC COHERENCE WRITE-HIT OTHER-SHARER EVENTS:    1327660

DRAM Statistics

Channel 0 RQ ROW_BUFFER_HIT:    1063344
  ROW_BUFFER_MISS:   22363574
  AVG DBUS CONGESTED CYCLE: 7.595
Channel 0 WQ ROW_BUFFER_HIT:    1339390
  ROW_BUFFER_MISS:   10145014
  FULL:       8641
Channel 0 REFRESHES ISSUED:      78772

VMEM ALIASED FILLS (cross-CPU shared-page hits): 383334
