[VMEM] WARNING: physical memory size is smaller than virtual memory size.

*** ChampSim Multicore Out-of-Order Simulator ***
Warmup Instructions: 50000000
Simulation Instructions: 100000000
Number of CPUs: 4
Page size: 4096

Off-chip DRAM Size: 16 GiB Channels: 1 Width: 64-bit Data Rate: 3205 MT/s
Heartbeat CPU 2 instructions: 10000001 cycles: 2509382 heartbeat IPC: 3.985 cumulative IPC: 3.985 (Simulation time: 00 hr 03 min 45 sec)
Heartbeat CPU 3 instructions: 10000002 cycles: 2509495 heartbeat IPC: 3.985 cumulative IPC: 3.985 (Simulation time: 00 hr 03 min 45 sec)
Heartbeat CPU 0 instructions: 10000001 cycles: 3015387 heartbeat IPC: 3.316 cumulative IPC: 3.316 (Simulation time: 00 hr 04 min 29 sec)
Heartbeat CPU 1 instructions: 10000002 cycles: 4159865 heartbeat IPC: 2.404 cumulative IPC: 2.404 (Simulation time: 00 hr 05 min 58 sec)
Heartbeat CPU 2 instructions: 20000001 cycles: 5009382 heartbeat IPC: 4 cumulative IPC: 3.993 (Simulation time: 00 hr 07 min 08 sec)
Heartbeat CPU 3 instructions: 20000002 cycles: 5009495 heartbeat IPC: 4 cumulative IPC: 3.992 (Simulation time: 00 hr 07 min 08 sec)
Heartbeat CPU 2 instructions: 30000001 cycles: 7509382 heartbeat IPC: 4 cumulative IPC: 3.995 (Simulation time: 00 hr 10 min 26 sec)
Heartbeat CPU 3 instructions: 30000002 cycles: 7509495 heartbeat IPC: 4 cumulative IPC: 3.995 (Simulation time: 00 hr 10 min 26 sec)
Heartbeat CPU 1 instructions: 20000004 cycles: 7837355 heartbeat IPC: 2.719 cumulative IPC: 2.552 (Simulation time: 00 hr 10 min 53 sec)
Heartbeat CPU 2 instructions: 40000001 cycles: 10009382 heartbeat IPC: 4 cumulative IPC: 3.996 (Simulation time: 00 hr 14 min 02 sec)
Heartbeat CPU 3 instructions: 40000002 cycles: 10009495 heartbeat IPC: 4 cumulative IPC: 3.996 (Simulation time: 00 hr 14 min 02 sec)
Heartbeat CPU 1 instructions: 30000005 cycles: 11537142 heartbeat IPC: 2.703 cumulative IPC: 2.6 (Simulation time: 00 hr 15 min 52 sec)
Heartbeat CPU 2 instructions: 50000001 cycles: 12509382 heartbeat IPC: 4 cumulative IPC: 3.997 (Simulation time: 00 hr 17 min 14 sec)
Warmup finished CPU 2 instructions: 50000001 cycles: 12509382 cumulative IPC: 3.997 (Simulation time: 00 hr 17 min 14 sec)
Heartbeat CPU 3 instructions: 50000002 cycles: 12509495 heartbeat IPC: 4 cumulative IPC: 3.997 (Simulation time: 00 hr 17 min 14 sec)
Warmup finished CPU 3 instructions: 50000002 cycles: 12509495 cumulative IPC: 3.997 (Simulation time: 00 hr 17 min 14 sec)
Heartbeat CPU 0 instructions: 20000005 cycles: 14017910 heartbeat IPC: 0.9089 cumulative IPC: 1.427 (Simulation time: 00 hr 19 min 22 sec)
Heartbeat CPU 2 instructions: 60000001 cycles: 15009382 heartbeat IPC: 4 cumulative IPC: 3.997 (Simulation time: 00 hr 20 min 45 sec)
Heartbeat CPU 3 instructions: 60000002 cycles: 15009495 heartbeat IPC: 4 cumulative IPC: 3.997 (Simulation time: 00 hr 20 min 45 sec)
Heartbeat CPU 1 instructions: 40000006 cycles: 15234499 heartbeat IPC: 2.705 cumulative IPC: 2.626 (Simulation time: 00 hr 21 min 04 sec)
Heartbeat CPU 2 instructions: 70000001 cycles: 17509382 heartbeat IPC: 4 cumulative IPC: 3.998 (Simulation time: 00 hr 24 min 17 sec)
Heartbeat CPU 3 instructions: 70000002 cycles: 17509495 heartbeat IPC: 4 cumulative IPC: 3.998 (Simulation time: 00 hr 24 min 17 sec)
Warmup finished CPU 1 instructions: 50000003 cycles: 18953467 cumulative IPC: 2.638 (Simulation time: 00 hr 26 min 18 sec)
Heartbeat CPU 1 instructions: 50000007 cycles: 18953468 heartbeat IPC: 2.689 cumulative IPC: 2.638 (Simulation time: 00 hr 26 min 18 sec)
Heartbeat CPU 2 instructions: 80000001 cycles: 20009382 heartbeat IPC: 4 cumulative IPC: 3.998 (Simulation time: 00 hr 27 min 47 sec)
Heartbeat CPU 3 instructions: 80000002 cycles: 20009495 heartbeat IPC: 4 cumulative IPC: 3.998 (Simulation time: 00 hr 27 min 47 sec)
Heartbeat CPU 2 instructions: 90000001 cycles: 22509382 heartbeat IPC: 4 cumulative IPC: 3.998 (Simulation time: 00 hr 31 min 14 sec)
Heartbeat CPU 3 instructions: 90000002 cycles: 22509495 heartbeat IPC: 4 cumulative IPC: 3.998 (Simulation time: 00 hr 31 min 14 sec)
Heartbeat CPU 1 instructions: 60000010 cycles: 22576867 heartbeat IPC: 2.76 cumulative IPC: 2.658 (Simulation time: 00 hr 31 min 20 sec)
Heartbeat CPU 2 instructions: 100000001 cycles: 25009382 heartbeat IPC: 4 cumulative IPC: 3.998 (Simulation time: 00 hr 34 min 41 sec)
Heartbeat CPU 3 instructions: 100000002 cycles: 25009495 heartbeat IPC: 4 cumulative IPC: 3.998 (Simulation time: 00 hr 34 min 41 sec)
Heartbeat CPU 1 instructions: 70000012 cycles: 26272884 heartbeat IPC: 2.706 cumulative IPC: 2.664 (Simulation time: 00 hr 36 min 27 sec)
Heartbeat CPU 2 instructions: 110000001 cycles: 27509382 heartbeat IPC: 4 cumulative IPC: 3.999 (Simulation time: 00 hr 38 min 10 sec)
Heartbeat CPU 3 instructions: 110000002 cycles: 27509495 heartbeat IPC: 4 cumulative IPC: 3.999 (Simulation time: 00 hr 38 min 10 sec)
Heartbeat CPU 0 instructions: 30000005 cycles: 29199414 heartbeat IPC: 0.6587 cumulative IPC: 1.027 (Simulation time: 00 hr 40 min 30 sec)
Heartbeat CPU 1 instructions: 80000012 cycles: 29962098 heartbeat IPC: 2.711 cumulative IPC: 2.67 (Simulation time: 00 hr 41 min 34 sec)
Heartbeat CPU 2 instructions: 120000001 cycles: 30009382 heartbeat IPC: 4 cumulative IPC: 3.999 (Simulation time: 00 hr 41 min 38 sec)
Heartbeat CPU 3 instructions: 120000002 cycles: 30009495 heartbeat IPC: 4 cumulative IPC: 3.999 (Simulation time: 00 hr 41 min 38 sec)
Heartbeat CPU 2 instructions: 130000001 cycles: 32509382 heartbeat IPC: 4 cumulative IPC: 3.999 (Simulation time: 00 hr 45 min 06 sec)
Heartbeat CPU 3 instructions: 130000002 cycles: 32509495 heartbeat IPC: 4 cumulative IPC: 3.999 (Simulation time: 00 hr 45 min 06 sec)
Heartbeat CPU 1 instructions: 90000015 cycles: 33625787 heartbeat IPC: 2.729 cumulative IPC: 2.677 (Simulation time: 00 hr 46 min 37 sec)
Heartbeat CPU 2 instructions: 140000001 cycles: 35009382 heartbeat IPC: 4 cumulative IPC: 3.999 (Simulation time: 00 hr 48 min 14 sec)
Heartbeat CPU 3 instructions: 140000002 cycles: 35009495 heartbeat IPC: 4 cumulative IPC: 3.999 (Simulation time: 00 hr 48 min 14 sec)
Heartbeat CPU 1 instructions: 100000016 cycles: 37301353 heartbeat IPC: 2.721 cumulative IPC: 2.681 (Simulation time: 00 hr 51 min 17 sec)
Heartbeat CPU 2 instructions: 150000001 cycles: 37509382 heartbeat IPC: 4 cumulative IPC: 3.999 (Simulation time: 00 hr 51 min 34 sec)
Heartbeat CPU 3 instructions: 150000002 cycles: 37509495 heartbeat IPC: 4 cumulative IPC: 3.999 (Simulation time: 00 hr 51 min 34 sec)
Heartbeat CPU 2 instructions: 160000001 cycles: 40009382 heartbeat IPC: 4 cumulative IPC: 3.999 (Simulation time: 00 hr 54 min 59 sec)
Heartbeat CPU 3 instructions: 160000002 cycles: 40009495 heartbeat IPC: 4 cumulative IPC: 3.999 (Simulation time: 00 hr 54 min 59 sec)
Heartbeat CPU 1 instructions: 110000016 cycles: 40973999 heartbeat IPC: 2.723 cumulative IPC: 2.685 (Simulation time: 00 hr 56 min 19 sec)
Heartbeat CPU 2 instructions: 170000001 cycles: 42509382 heartbeat IPC: 4 cumulative IPC: 3.999 (Simulation time: 00 hr 58 min 28 sec)
Heartbeat CPU 3 instructions: 170000002 cycles: 42509495 heartbeat IPC: 4 cumulative IPC: 3.999 (Simulation time: 00 hr 58 min 28 sec)
Heartbeat CPU 0 instructions: 40000005 cycles: 44687259 heartbeat IPC: 0.6457 cumulative IPC: 0.8951 (Simulation time: 01 hr 01 min 01 sec)
Heartbeat CPU 1 instructions: 120000018 cycles: 44704447 heartbeat IPC: 2.681 cumulative IPC: 2.684 (Simulation time: 01 hr 01 min 03 sec)
Heartbeat CPU 2 instructions: 180000001 cycles: 45009382 heartbeat IPC: 4 cumulative IPC: 3.999 (Simulation time: 01 hr 01 min 24 sec)
Heartbeat CPU 3 instructions: 180000002 cycles: 45009495 heartbeat IPC: 4 cumulative IPC: 3.999 (Simulation time: 01 hr 01 min 24 sec)
Heartbeat CPU 2 instructions: 190000001 cycles: 47509382 heartbeat IPC: 4 cumulative IPC: 3.999 (Simulation time: 01 hr 04 min 35 sec)
Heartbeat CPU 3 instructions: 190000002 cycles: 47509495 heartbeat IPC: 4 cumulative IPC: 3.999 (Simulation time: 01 hr 04 min 35 sec)
Heartbeat CPU 1 instructions: 130000020 cycles: 48398129 heartbeat IPC: 2.707 cumulative IPC: 2.686 (Simulation time: 01 hr 05 min 34 sec)
Heartbeat CPU 2 instructions: 200000001 cycles: 50009382 heartbeat IPC: 4 cumulative IPC: 3.999 (Simulation time: 01 hr 07 min 47 sec)
Heartbeat CPU 3 instructions: 200000002 cycles: 50009495 heartbeat IPC: 4 cumulative IPC: 3.999 (Simulation time: 01 hr 07 min 47 sec)
Heartbeat CPU 1 instructions: 140000020 cycles: 51970521 heartbeat IPC: 2.799 cumulative IPC: 2.694 (Simulation time: 01 hr 11 min 10 sec)
Heartbeat CPU 2 instructions: 210000001 cycles: 52509382 heartbeat IPC: 4 cumulative IPC: 3.999 (Simulation time: 01 hr 12 min 11 sec)
Heartbeat CPU 3 instructions: 210000002 cycles: 52509495 heartbeat IPC: 4 cumulative IPC: 3.999 (Simulation time: 01 hr 12 min 11 sec)
Heartbeat CPU 2 instructions: 220000001 cycles: 55009382 heartbeat IPC: 4 cumulative IPC: 3.999 (Simulation time: 01 hr 16 min 25 sec)
Heartbeat CPU 3 instructions: 220000002 cycles: 55009495 heartbeat IPC: 4 cumulative IPC: 3.999 (Simulation time: 01 hr 16 min 25 sec)
Heartbeat CPU 1 instructions: 150000023 cycles: 55929427 heartbeat IPC: 2.526 cumulative IPC: 2.682 (Simulation time: 01 hr 17 min 33 sec)
Heartbeat CPU 2 instructions: 230000001 cycles: 57509382 heartbeat IPC: 4 cumulative IPC: 3.999 (Simulation time: 01 hr 20 min 08 sec)
Heartbeat CPU 3 instructions: 230000002 cycles: 57509495 heartbeat IPC: 4 cumulative IPC: 3.999 (Simulation time: 01 hr 20 min 08 sec)
Heartbeat CPU 1 instructions: 160000023 cycles: 59765641 heartbeat IPC: 2.607 cumulative IPC: 2.677 (Simulation time: 01 hr 23 min 09 sec)
Heartbeat CPU 2 instructions: 240000001 cycles: 60009382 heartbeat IPC: 4 cumulative IPC: 3.999 (Simulation time: 01 hr 23 min 35 sec)
Heartbeat CPU 3 instructions: 240000002 cycles: 60009495 heartbeat IPC: 4 cumulative IPC: 3.999 (Simulation time: 01 hr 23 min 35 sec)
Warmup finished CPU 0 instructions: 50000000 cycles: 60384131 cumulative IPC: 0.828 (Simulation time: 01 hr 24 min 11 sec)
Warmup complete CPU 3 instructions: 241498546 cycles: 60384131 cumulative IPC: 3.999 (Simulation time: 01 hr 24 min 11 sec)
Warmup complete CPU 2 instructions: 241498997 cycles: 60384131 cumulative IPC: 3.999 (Simulation time: 01 hr 24 min 11 sec)
Warmup complete CPU 1 instructions: 161690919 cycles: 60384131 cumulative IPC: 2.678 (Simulation time: 01 hr 24 min 11 sec)
Warmup complete CPU 0 instructions: 50000000 cycles: 60384131 cumulative IPC: 0.828 (Simulation time: 01 hr 24 min 11 sec)
Heartbeat CPU 0 instructions: 50000005 cycles: 60384142 heartbeat IPC: 0.6371 cumulative IPC: 0.4545 (Simulation time: 01 hr 24 min 11 sec)
Heartbeat CPU 2 instructions: 250000001 cycles: 62509382 heartbeat IPC: 4 cumulative IPC: 4 (Simulation time: 01 hr 27 min 04 sec)
Heartbeat CPU 3 instructions: 250000002 cycles: 62509495 heartbeat IPC: 4 cumulative IPC: 4 (Simulation time: 01 hr 27 min 04 sec)
Heartbeat CPU 1 instructions: 170000026 cycles: 64675926 heartbeat IPC: 2.037 cumulative IPC: 1.936 (Simulation time: 01 hr 29 min 56 sec)
Heartbeat CPU 2 instructions: 260000001 cycles: 65009382 heartbeat IPC: 4 cumulative IPC: 4 (Simulation time: 01 hr 30 min 27 sec)
Heartbeat CPU 3 instructions: 260000002 cycles: 65009495 heartbeat IPC: 4 cumulative IPC: 4 (Simulation time: 01 hr 30 min 27 sec)
Heartbeat CPU 2 instructions: 270000001 cycles: 67509382 heartbeat IPC: 4 cumulative IPC: 4 (Simulation time: 01 hr 33 min 27 sec)
Heartbeat CPU 3 instructions: 270000002 cycles: 67509495 heartbeat IPC: 4 cumulative IPC: 4 (Simulation time: 01 hr 33 min 27 sec)
Heartbeat CPU 1 instructions: 180000028 cycles: 69681785 heartbeat IPC: 1.998 cumulative IPC: 1.969 (Simulation time: 01 hr 36 min 03 sec)
Heartbeat CPU 2 instructions: 280000001 cycles: 70009382 heartbeat IPC: 4 cumulative IPC: 4 (Simulation time: 01 hr 36 min 27 sec)
Heartbeat CPU 3 instructions: 280000002 cycles: 70009495 heartbeat IPC: 4 cumulative IPC: 4 (Simulation time: 01 hr 36 min 27 sec)
Heartbeat CPU 2 instructions: 290000001 cycles: 72509382 heartbeat IPC: 4 cumulative IPC: 4 (Simulation time: 01 hr 39 min 31 sec)
Heartbeat CPU 3 instructions: 290000002 cycles: 72509495 heartbeat IPC: 4 cumulative IPC: 4 (Simulation time: 01 hr 39 min 31 sec)
Heartbeat CPU 1 instructions: 190000028 cycles: 74538623 heartbeat IPC: 2.059 cumulative IPC: 2 (Simulation time: 01 hr 42 min 08 sec)
Heartbeat CPU 2 instructions: 300000001 cycles: 75009382 heartbeat IPC: 4 cumulative IPC: 4 (Simulation time: 01 hr 42 min 44 sec)
Heartbeat CPU 3 instructions: 300000002 cycles: 75009495 heartbeat IPC: 4 cumulative IPC: 4 (Simulation time: 01 hr 42 min 44 sec)
Heartbeat CPU 2 instructions: 310000001 cycles: 77509382 heartbeat IPC: 4 cumulative IPC: 4 (Simulation time: 01 hr 45 min 55 sec)
Heartbeat CPU 3 instructions: 310000002 cycles: 77509495 heartbeat IPC: 4 cumulative IPC: 4 (Simulation time: 01 hr 45 min 55 sec)
Heartbeat CPU 1 instructions: 200000028 cycles: 79254291 heartbeat IPC: 2.121 cumulative IPC: 2.03 (Simulation time: 01 hr 48 min 07 sec)
Heartbeat CPU 2 instructions: 320000001 cycles: 80009382 heartbeat IPC: 4 cumulative IPC: 4 (Simulation time: 01 hr 49 min 04 sec)
Heartbeat CPU 3 instructions: 320000002 cycles: 80009495 heartbeat IPC: 4 cumulative IPC: 4 (Simulation time: 01 hr 49 min 04 sec)
Heartbeat CPU 0 instructions: 60000009 cycles: 80099365 heartbeat IPC: 0.5072 cumulative IPC: 0.5072 (Simulation time: 01 hr 49 min 12 sec)
Heartbeat CPU 2 instructions: 330000001 cycles: 82509382 heartbeat IPC: 4 cumulative IPC: 4 (Simulation time: 01 hr 52 min 03 sec)
Heartbeat CPU 3 instructions: 330000002 cycles: 82509495 heartbeat IPC: 4 cumulative IPC: 4 (Simulation time: 01 hr 52 min 03 sec)
Heartbeat CPU 1 instructions: 210000031 cycles: 84137188 heartbeat IPC: 2.048 cumulative IPC: 2.034 (Simulation time: 01 hr 53 min 59 sec)
Heartbeat CPU 2 instructions: 340000001 cycles: 85009382 heartbeat IPC: 4 cumulative IPC: 4 (Simulation time: 01 hr 55 min 00 sec)
Heartbeat CPU 3 instructions: 340000002 cycles: 85009495 heartbeat IPC: 4 cumulative IPC: 4 (Simulation time: 01 hr 55 min 00 sec)
Simulation finished CPU 3 instructions: 100000000 cycles: 25000000 cumulative IPC: 4 (Simulation time: 01 hr 55 min 27 sec)
Simulation finished CPU 2 instructions: 100000000 cycles: 25000000 cumulative IPC: 4 (Simulation time: 01 hr 55 min 27 sec)
Heartbeat CPU 2 instructions: 350000001 cycles: 87509382 heartbeat IPC: 4 cumulative IPC: 4 (Simulation time: 01 hr 57 min 57 sec)
Heartbeat CPU 3 instructions: 350000002 cycles: 87509495 heartbeat IPC: 4 cumulative IPC: 4 (Simulation time: 01 hr 57 min 57 sec)
Heartbeat CPU 1 instructions: 220000031 cycles: 89111057 heartbeat IPC: 2.011 cumulative IPC: 2.03 (Simulation time: 01 hr 59 min 47 sec)
Heartbeat CPU 2 instructions: 360000001 cycles: 90009382 heartbeat IPC: 4 cumulative IPC: 4 (Simulation time: 02 hr 00 min 51 sec)
Heartbeat CPU 3 instructions: 360000002 cycles: 90009495 heartbeat IPC: 4 cumulative IPC: 4 (Simulation time: 02 hr 00 min 51 sec)
Heartbeat CPU 2 instructions: 370000001 cycles: 92509382 heartbeat IPC: 4 cumulative IPC: 4 (Simulation time: 02 hr 03 min 49 sec)
Heartbeat CPU 3 instructions: 370000002 cycles: 92509495 heartbeat IPC: 4 cumulative IPC: 4 (Simulation time: 02 hr 03 min 49 sec)
Heartbeat CPU 1 instructions: 230000032 cycles: 94003008 heartbeat IPC: 2.044 cumulative IPC: 2.032 (Simulation time: 02 hr 05 min 46 sec)
Heartbeat CPU 2 instructions: 380000001 cycles: 95009382 heartbeat IPC: 4 cumulative IPC: 4 (Simulation time: 02 hr 07 min 00 sec)
Heartbeat CPU 3 instructions: 380000002 cycles: 95009495 heartbeat IPC: 4 cumulative IPC: 4 (Simulation time: 02 hr 07 min 00 sec)
Heartbeat CPU 2 instructions: 390000001 cycles: 97509382 heartbeat IPC: 4 cumulative IPC: 4 (Simulation time: 02 hr 09 min 55 sec)
Heartbeat CPU 3 instructions: 390000002 cycles: 97509495 heartbeat IPC: 4 cumulative IPC: 4 (Simulation time: 02 hr 09 min 55 sec)
Heartbeat CPU 1 instructions: 240000035 cycles: 98945386 heartbeat IPC: 2.023 cumulative IPC: 2.031 (Simulation time: 02 hr 11 min 26 sec)
Heartbeat CPU 0 instructions: 70000009 cycles: 99503285 heartbeat IPC: 0.5154 cumulative IPC: 0.5113 (Simulation time: 02 hr 12 min 01 sec)
Heartbeat CPU 2 instructions: 400000001 cycles: 100009382 heartbeat IPC: 4 cumulative IPC: 4 (Simulation time: 02 hr 12 min 33 sec)
Heartbeat CPU 3 instructions: 400000002 cycles: 100009495 heartbeat IPC: 4 cumulative IPC: 4 (Simulation time: 02 hr 12 min 33 sec)
Heartbeat CPU 2 instructions: 410000001 cycles: 102509382 heartbeat IPC: 4 cumulative IPC: 4 (Simulation time: 02 hr 15 min 17 sec)
Heartbeat CPU 3 instructions: 410000004 cycles: 102509564 heartbeat IPC: 4 cumulative IPC: 4 (Simulation time: 02 hr 15 min 17 sec)
Heartbeat CPU 1 instructions: 250000035 cycles: 103968624 heartbeat IPC: 1.991 cumulative IPC: 2.026 (Simulation time: 02 hr 16 min 51 sec)
Heartbeat CPU 2 instructions: 420000001 cycles: 105009444 heartbeat IPC: 4 cumulative IPC: 4 (Simulation time: 02 hr 17 min 59 sec)
Heartbeat CPU 3 instructions: 420000004 cycles: 105009564 heartbeat IPC: 4 cumulative IPC: 4 (Simulation time: 02 hr 17 min 59 sec)
Heartbeat CPU 2 instructions: 430000001 cycles: 107509444 heartbeat IPC: 4 cumulative IPC: 4 (Simulation time: 02 hr 20 min 42 sec)
Heartbeat CPU 3 instructions: 430000004 cycles: 107509564 heartbeat IPC: 4 cumulative IPC: 4 (Simulation time: 02 hr 20 min 42 sec)
Heartbeat CPU 1 instructions: 260000038 cycles: 109030923 heartbeat IPC: 1.975 cumulative IPC: 2.021 (Simulation time: 02 hr 22 min 19 sec)
Simulation finished CPU 1 instructions: 100000001 cycles: 49532774 cumulative IPC: 2.019 (Simulation time: 02 hr 23 min 16 sec)
Heartbeat CPU 2 instructions: 440000001 cycles: 110009444 heartbeat IPC: 4 cumulative IPC: 4 (Simulation time: 02 hr 23 min 22 sec)
Heartbeat CPU 3 instructions: 440000004 cycles: 110009564 heartbeat IPC: 4 cumulative IPC: 4 (Simulation time: 02 hr 23 min 22 sec)
Heartbeat CPU 2 instructions: 450000001 cycles: 112509444 heartbeat IPC: 4 cumulative IPC: 4 (Simulation time: 02 hr 26 min 03 sec)
Heartbeat CPU 3 instructions: 450000004 cycles: 112509564 heartbeat IPC: 4 cumulative IPC: 4 (Simulation time: 02 hr 26 min 03 sec)
Heartbeat CPU 1 instructions: 270000040 cycles: 114068895 heartbeat IPC: 1.985 cumulative IPC: 2.018 (Simulation time: 02 hr 27 min 43 sec)
Heartbeat CPU 2 instructions: 460000001 cycles: 115009444 heartbeat IPC: 4 cumulative IPC: 4 (Simulation time: 02 hr 28 min 44 sec)
Heartbeat CPU 3 instructions: 460000004 cycles: 115009564 heartbeat IPC: 4 cumulative IPC: 4 (Simulation time: 02 hr 28 min 44 sec)
Heartbeat CPU 2 instructions: 470000001 cycles: 117509444 heartbeat IPC: 4 cumulative IPC: 4 (Simulation time: 02 hr 31 min 23 sec)
Heartbeat CPU 3 instructions: 470000004 cycles: 117509564 heartbeat IPC: 4 cumulative IPC: 4 (Simulation time: 02 hr 31 min 23 sec)
Heartbeat CPU 0 instructions: 80000009 cycles: 118294830 heartbeat IPC: 0.5322 cumulative IPC: 0.518 (Simulation time: 02 hr 32 min 11 sec)
Heartbeat CPU 2 instructions: 480000001 cycles: 120009444 heartbeat IPC: 4 cumulative IPC: 4 (Simulation time: 02 hr 34 min 00 sec)
Heartbeat CPU 3 instructions: 480000004 cycles: 120009564 heartbeat IPC: 4 cumulative IPC: 4 (Simulation time: 02 hr 34 min 00 sec)
Heartbeat CPU 1 instructions: 280000042 cycles: 120304553 heartbeat IPC: 1.604 cumulative IPC: 1.974 (Simulation time: 02 hr 34 min 19 sec)
Heartbeat CPU 2 instructions: 490000001 cycles: 122509444 heartbeat IPC: 4 cumulative IPC: 4 (Simulation time: 02 hr 36 min 39 sec)
Heartbeat CPU 3 instructions: 490000004 cycles: 122509564 heartbeat IPC: 4 cumulative IPC: 4 (Simulation time: 02 hr 36 min 39 sec)
Heartbeat CPU 2 instructions: 500000001 cycles: 125009444 heartbeat IPC: 4 cumulative IPC: 4 (Simulation time: 02 hr 39 min 15 sec)
Heartbeat CPU 3 instructions: 500000004 cycles: 125009564 heartbeat IPC: 4 cumulative IPC: 4 (Simulation time: 02 hr 39 min 15 sec)
Heartbeat CPU 1 instructions: 290000042 cycles: 127193179 heartbeat IPC: 1.452 cumulative IPC: 1.921 (Simulation time: 02 hr 41 min 36 sec)
Heartbeat CPU 2 instructions: 510000001 cycles: 127509444 heartbeat IPC: 4 cumulative IPC: 4 (Simulation time: 02 hr 41 min 55 sec)
Heartbeat CPU 3 instructions: 510000004 cycles: 127509564 heartbeat IPC: 4 cumulative IPC: 4 (Simulation time: 02 hr 41 min 55 sec)
Heartbeat CPU 2 instructions: 520000001 cycles: 130009444 heartbeat IPC: 4 cumulative IPC: 4 (Simulation time: 02 hr 44 min 33 sec)
Heartbeat CPU 3 instructions: 520000004 cycles: 130009564 heartbeat IPC: 4 cumulative IPC: 4 (Simulation time: 02 hr 44 min 33 sec)
Heartbeat CPU 1 instructions: 300000043 cycles: 132380096 heartbeat IPC: 1.928 cumulative IPC: 1.921 (Simulation time: 02 hr 47 min 05 sec)
Heartbeat CPU 2 instructions: 530000001 cycles: 132509444 heartbeat IPC: 4 cumulative IPC: 4 (Simulation time: 02 hr 47 min 13 sec)
Heartbeat CPU 3 instructions: 530000004 cycles: 132509564 heartbeat IPC: 4 cumulative IPC: 4 (Simulation time: 02 hr 47 min 13 sec)
*** Reached end of trace: (3, "/home/harshraj/COALESCE-Hashed-Perceptron-Cache-Replacement-Policy/simulator/traces/barnes_4t3.champsimtrace")
Heartbeat CPU 2 instructions: 540000001 cycles: 135009444 heartbeat IPC: 4 cumulative IPC: 4 (Simulation time: 02 hr 49 min 54 sec)
Heartbeat CPU 3 instructions: 540000006 cycles: 135017420 heartbeat IPC: 3.987 cumulative IPC: 4 (Simulation time: 02 hr 49 min 54 sec)
Heartbeat CPU 1 instructions: 310000043 cycles: 137338635 heartbeat IPC: 2.017 cumulative IPC: 1.927 (Simulation time: 02 hr 52 min 26 sec)
Heartbeat CPU 2 instructions: 550000001 cycles: 137509444 heartbeat IPC: 4 cumulative IPC: 4 (Simulation time: 02 hr 52 min 37 sec)
Heartbeat CPU 3 instructions: 550000006 cycles: 137517420 heartbeat IPC: 4 cumulative IPC: 4 (Simulation time: 02 hr 52 min 37 sec)
Heartbeat CPU 0 instructions: 90000010 cycles: 137991929 heartbeat IPC: 0.5077 cumulative IPC: 0.5154 (Simulation time: 02 hr 53 min 09 sec)
*** Reached end of trace: (2, "/home/harshraj/COALESCE-Hashed-Perceptron-Cache-Replacement-Policy/simulator/traces/barnes_4t2.champsimtrace")
Heartbeat CPU 2 instructions: 560000001 cycles: 140016088 heartbeat IPC: 3.989 cumulative IPC: 4 (Simulation time: 02 hr 55 min 22 sec)
Heartbeat CPU 3 instructions: 560000006 cycles: 140017420 heartbeat IPC: 4 cumulative IPC: 4 (Simulation time: 02 hr 55 min 22 sec)
Heartbeat CPU 2 instructions: 570000001 cycles: 142516088 heartbeat IPC: 4 cumulative IPC: 4 (Simulation time: 02 hr 58 min 06 sec)
Heartbeat CPU 3 instructions: 570000006 cycles: 142517420 heartbeat IPC: 4 cumulative IPC: 4 (Simulation time: 02 hr 58 min 06 sec)
Heartbeat CPU 1 instructions: 320000046 cycles: 142540162 heartbeat IPC: 1.923 cumulative IPC: 1.927 (Simulation time: 02 hr 58 min 07 sec)
Heartbeat CPU 2 instructions: 580000001 cycles: 145016088 heartbeat IPC: 4 cumulative IPC: 4 (Simulation time: 03 hr 00 min 47 sec)
Heartbeat CPU 3 instructions: 580000006 cycles: 145017420 heartbeat IPC: 4 cumulative IPC: 4 (Simulation time: 03 hr 00 min 47 sec)
Heartbeat CPU 2 instructions: 590000001 cycles: 147516088 heartbeat IPC: 4 cumulative IPC: 4 (Simulation time: 03 hr 03 min 30 sec)
Heartbeat CPU 3 instructions: 590000006 cycles: 147517420 heartbeat IPC: 4 cumulative IPC: 4 (Simulation time: 03 hr 03 min 30 sec)
Heartbeat CPU 1 instructions: 330000048 cycles: 147648739 heartbeat IPC: 1.957 cumulative IPC: 1.929 (Simulation time: 03 hr 03 min 39 sec)
Heartbeat CPU 2 instructions: 600000001 cycles: 150016088 heartbeat IPC: 4 cumulative IPC: 4 (Simulation time: 03 hr 06 min 13 sec)
Heartbeat CPU 3 instructions: 600000006 cycles: 150017420 heartbeat IPC: 4 cumulative IPC: 4 (Simulation time: 03 hr 06 min 13 sec)
Heartbeat CPU 2 instructions: 610000001 cycles: 152516088 heartbeat IPC: 4 cumulative IPC: 4 (Simulation time: 03 hr 08 min 55 sec)
Heartbeat CPU 3 instructions: 610000006 cycles: 152517420 heartbeat IPC: 4 cumulative IPC: 4 (Simulation time: 03 hr 08 min 55 sec)
Heartbeat CPU 1 instructions: 340000051 cycles: 152518853 heartbeat IPC: 2.053 cumulative IPC: 1.935 (Simulation time: 03 hr 08 min 55 sec)
Heartbeat CPU 2 instructions: 620000001 cycles: 155016088 heartbeat IPC: 4 cumulative IPC: 4 (Simulation time: 03 hr 11 min 38 sec)
Heartbeat CPU 3 instructions: 620000006 cycles: 155017420 heartbeat IPC: 4 cumulative IPC: 4 (Simulation time: 03 hr 11 min 38 sec)
Heartbeat CPU 0 instructions: 100000014 cycles: 156581417 heartbeat IPC: 0.5379 cumulative IPC: 0.5198 (Simulation time: 03 hr 13 min 20 sec)
Heartbeat CPU 1 instructions: 350000052 cycles: 157002331 heartbeat IPC: 2.23 cumulative IPC: 1.949 (Simulation time: 03 hr 13 min 47 sec)
Heartbeat CPU 2 instructions: 630000001 cycles: 157516088 heartbeat IPC: 4 cumulative IPC: 4 (Simulation time: 03 hr 14 min 20 sec)
Heartbeat CPU 3 instructions: 630000006 cycles: 157517420 heartbeat IPC: 4 cumulative IPC: 4 (Simulation time: 03 hr 14 min 20 sec)
Heartbeat CPU 2 instructions: 640000001 cycles: 160016088 heartbeat IPC: 4 cumulative IPC: 4 (Simulation time: 03 hr 17 min 04 sec)
Heartbeat CPU 3 instructions: 640000006 cycles: 160017420 heartbeat IPC: 4 cumulative IPC: 4 (Simulation time: 03 hr 17 min 04 sec)
Heartbeat CPU 1 instructions: 360000055 cycles: 162044686 heartbeat IPC: 1.983 cumulative IPC: 1.951 (Simulation time: 03 hr 19 min 19 sec)
Heartbeat CPU 2 instructions: 650000001 cycles: 162516088 heartbeat IPC: 4 cumulative IPC: 4 (Simulation time: 03 hr 19 min 50 sec)
Heartbeat CPU 3 instructions: 650000006 cycles: 162517420 heartbeat IPC: 4 cumulative IPC: 4 (Simulation time: 03 hr 19 min 50 sec)
Heartbeat CPU 2 instructions: 660000001 cycles: 165016088 heartbeat IPC: 4 cumulative IPC: 4 (Simulation time: 03 hr 22 min 32 sec)
Heartbeat CPU 3 instructions: 660000006 cycles: 165017420 heartbeat IPC: 4 cumulative IPC: 4 (Simulation time: 03 hr 22 min 32 sec)
Heartbeat CPU 1 instructions: 370000056 cycles: 166756796 heartbeat IPC: 2.122 cumulative IPC: 1.958 (Simulation time: 03 hr 24 min 28 sec)
Heartbeat CPU 2 instructions: 670000001 cycles: 167516088 heartbeat IPC: 4 cumulative IPC: 4 (Simulation time: 03 hr 25 min 18 sec)
Heartbeat CPU 3 instructions: 670000006 cycles: 167517420 heartbeat IPC: 4 cumulative IPC: 4 (Simulation time: 03 hr 25 min 18 sec)
Heartbeat CPU 2 instructions: 680000001 cycles: 170016088 heartbeat IPC: 4 cumulative IPC: 4 (Simulation time: 03 hr 28 min 03 sec)
Heartbeat CPU 3 instructions: 680000006 cycles: 170017420 heartbeat IPC: 4 cumulative IPC: 4 (Simulation time: 03 hr 28 min 03 sec)
Heartbeat CPU 1 instructions: 380000058 cycles: 171780877 heartbeat IPC: 1.99 cumulative IPC: 1.96 (Simulation time: 03 hr 29 min 56 sec)
Heartbeat CPU 2 instructions: 690000001 cycles: 172516088 heartbeat IPC: 4 cumulative IPC: 4 (Simulation time: 03 hr 30 min 43 sec)
Heartbeat CPU 3 instructions: 690000006 cycles: 172517420 heartbeat IPC: 4 cumulative IPC: 4 (Simulation time: 03 hr 30 min 43 sec)
Heartbeat CPU 0 instructions: 110000014 cycles: 173812710 heartbeat IPC: 0.5803 cumulative IPC: 0.529 (Simulation time: 03 hr 32 min 07 sec)
Heartbeat CPU 2 instructions: 700000001 cycles: 175016088 heartbeat IPC: 4 cumulative IPC: 4 (Simulation time: 03 hr 33 min 24 sec)
Heartbeat CPU 3 instructions: 700000006 cycles: 175017420 heartbeat IPC: 4 cumulative IPC: 4 (Simulation time: 03 hr 33 min 24 sec)
Heartbeat CPU 1 instructions: 390000061 cycles: 177507241 heartbeat IPC: 1.746 cumulative IPC: 1.949 (Simulation time: 03 hr 36 min 07 sec)
Heartbeat CPU 2 instructions: 710000001 cycles: 177516088 heartbeat IPC: 4 cumulative IPC: 4 (Simulation time: 03 hr 36 min 08 sec)
Heartbeat CPU 3 instructions: 710000006 cycles: 177517420 heartbeat IPC: 4 cumulative IPC: 4 (Simulation time: 03 hr 36 min 08 sec)
Heartbeat CPU 2 instructions: 720000001 cycles: 180016088 heartbeat IPC: 4 cumulative IPC: 4 (Simulation time: 03 hr 38 min 51 sec)
Heartbeat CPU 3 instructions: 720000006 cycles: 180017420 heartbeat IPC: 4 cumulative IPC: 4 (Simulation time: 03 hr 38 min 51 sec)
Heartbeat CPU 2 instructions: 730000001 cycles: 182516088 heartbeat IPC: 4 cumulative IPC: 4 (Simulation time: 03 hr 41 min 33 sec)
Heartbeat CPU 3 instructions: 730000006 cycles: 182517420 heartbeat IPC: 4 cumulative IPC: 4 (Simulation time: 03 hr 41 min 33 sec)
Heartbeat CPU 1 instructions: 400000063 cycles: 183560610 heartbeat IPC: 1.652 cumulative IPC: 1.935 (Simulation time: 03 hr 42 min 42 sec)
Heartbeat CPU 2 instructions: 740000001 cycles: 185016088 heartbeat IPC: 4 cumulative IPC: 4 (Simulation time: 03 hr 44 min 15 sec)
Heartbeat CPU 3 instructions: 740000006 cycles: 185017420 heartbeat IPC: 4 cumulative IPC: 4 (Simulation time: 03 hr 44 min 15 sec)
Heartbeat CPU 2 instructions: 750000001 cycles: 187516088 heartbeat IPC: 4 cumulative IPC: 4 (Simulation time: 03 hr 47 min 03 sec)
Heartbeat CPU 3 instructions: 750000006 cycles: 187517420 heartbeat IPC: 4 cumulative IPC: 4 (Simulation time: 03 hr 47 min 03 sec)
Heartbeat CPU 1 instructions: 410000064 cycles: 189075317 heartbeat IPC: 1.813 cumulative IPC: 1.929 (Simulation time: 03 hr 48 min 50 sec)
Heartbeat CPU 2 instructions: 760000001 cycles: 190016088 heartbeat IPC: 4 cumulative IPC: 4 (Simulation time: 03 hr 50 min 00 sec)
Heartbeat CPU 3 instructions: 760000006 cycles: 190017420 heartbeat IPC: 4 cumulative IPC: 4 (Simulation time: 03 hr 50 min 00 sec)
Heartbeat CPU 0 instructions: 120000015 cycles: 190417294 heartbeat IPC: 0.6022 cumulative IPC: 0.5383 (Simulation time: 03 hr 50 min 28 sec)
Heartbeat CPU 2 instructions: 770000001 cycles: 192516088 heartbeat IPC: 4 cumulative IPC: 4 (Simulation time: 03 hr 52 min 49 sec)
Heartbeat CPU 3 instructions: 770000006 cycles: 192517420 heartbeat IPC: 4 cumulative IPC: 4 (Simulation time: 03 hr 52 min 49 sec)
Heartbeat CPU 2 instructions: 780000001 cycles: 195016088 heartbeat IPC: 4 cumulative IPC: 4 (Simulation time: 03 hr 55 min 38 sec)
Heartbeat CPU 3 instructions: 780000006 cycles: 195017420 heartbeat IPC: 4 cumulative IPC: 4 (Simulation time: 03 hr 55 min 39 sec)
Heartbeat CPU 1 instructions: 420000066 cycles: 197169661 heartbeat IPC: 1.235 cumulative IPC: 1.888 (Simulation time: 03 hr 58 min 00 sec)
Heartbeat CPU 2 instructions: 790000001 cycles: 197516088 heartbeat IPC: 4 cumulative IPC: 4 (Simulation time: 03 hr 58 min 23 sec)
Heartbeat CPU 3 instructions: 790000006 cycles: 197517420 heartbeat IPC: 4 cumulative IPC: 4 (Simulation time: 03 hr 58 min 23 sec)
Heartbeat CPU 2 instructions: 800000001 cycles: 200016088 heartbeat IPC: 4 cumulative IPC: 4 (Simulation time: 04 hr 01 min 15 sec)
Heartbeat CPU 3 instructions: 800000006 cycles: 200017420 heartbeat IPC: 4 cumulative IPC: 4 (Simulation time: 04 hr 01 min 15 sec)
Heartbeat CPU 2 instructions: 810000001 cycles: 202516088 heartbeat IPC: 4 cumulative IPC: 4 (Simulation time: 04 hr 04 min 12 sec)
Heartbeat CPU 3 instructions: 810000006 cycles: 202517420 heartbeat IPC: 4 cumulative IPC: 4 (Simulation time: 04 hr 04 min 12 sec)
Heartbeat CPU 0 instructions: 130000017 cycles: 202773288 heartbeat IPC: 0.8093 cumulative IPC: 0.5618 (Simulation time: 04 hr 04 min 29 sec)
Heartbeat CPU 1 instructions: 430000066 cycles: 203045322 heartbeat IPC: 1.702 cumulative IPC: 1.881 (Simulation time: 04 hr 04 min 49 sec)
Heartbeat CPU 2 instructions: 820000001 cycles: 205016088 heartbeat IPC: 4 cumulative IPC: 4 (Simulation time: 04 hr 07 min 04 sec)
Heartbeat CPU 3 instructions: 820000006 cycles: 205017420 heartbeat IPC: 4 cumulative IPC: 4 (Simulation time: 04 hr 07 min 04 sec)
Heartbeat CPU 2 instructions: 830000001 cycles: 207516088 heartbeat IPC: 4 cumulative IPC: 4 (Simulation time: 04 hr 10 min 10 sec)
Heartbeat CPU 3 instructions: 830000006 cycles: 207517420 heartbeat IPC: 4 cumulative IPC: 4 (Simulation time: 04 hr 10 min 10 sec)
Heartbeat CPU 1 instructions: 440000069 cycles: 208127496 heartbeat IPC: 1.968 cumulative IPC: 1.884 (Simulation time: 04 hr 11 min 08 sec)
Heartbeat CPU 0 instructions: 140000018 cycles: 209482019 heartbeat IPC: 1.491 cumulative IPC: 0.6036 (Simulation time: 04 hr 12 min 56 sec)
Heartbeat CPU 2 instructions: 840000001 cycles: 210016088 heartbeat IPC: 4 cumulative IPC: 4 (Simulation time: 04 hr 13 min 38 sec)
Heartbeat CPU 3 instructions: 840000006 cycles: 210017420 heartbeat IPC: 4 cumulative IPC: 4 (Simulation time: 04 hr 13 min 38 sec)
Heartbeat CPU 2 instructions: 850000001 cycles: 212516088 heartbeat IPC: 4 cumulative IPC: 4 (Simulation time: 04 hr 16 min 48 sec)
Heartbeat CPU 3 instructions: 850000006 cycles: 212517420 heartbeat IPC: 4 cumulative IPC: 4 (Simulation time: 04 hr 16 min 48 sec)
Heartbeat CPU 1 instructions: 450000070 cycles: 213321083 heartbeat IPC: 1.925 cumulative IPC: 1.885 (Simulation time: 04 hr 17 min 50 sec)
Heartbeat CPU 2 instructions: 860000001 cycles: 215016088 heartbeat IPC: 4 cumulative IPC: 4 (Simulation time: 04 hr 19 min 49 sec)
Heartbeat CPU 3 instructions: 860000006 cycles: 215017420 heartbeat IPC: 4 cumulative IPC: 4 (Simulation time: 04 hr 19 min 49 sec)
Heartbeat CPU 2 instructions: 870000001 cycles: 217516088 heartbeat IPC: 4 cumulative IPC: 4 (Simulation time: 04 hr 22 min 44 sec)
Heartbeat CPU 3 instructions: 870000006 cycles: 217517420 heartbeat IPC: 4 cumulative IPC: 4 (Simulation time: 04 hr 22 min 44 sec)
Heartbeat CPU 1 instructions: 460000072 cycles: 218284123 heartbeat IPC: 2.015 cumulative IPC: 1.889 (Simulation time: 04 hr 23 min 35 sec)
Heartbeat CPU 2 instructions: 880000001 cycles: 220016088 heartbeat IPC: 4 cumulative IPC: 4 (Simulation time: 04 hr 25 min 33 sec)
Heartbeat CPU 3 instructions: 880000006 cycles: 220017420 heartbeat IPC: 4 cumulative IPC: 4 (Simulation time: 04 hr 25 min 33 sec)
Simulation finished CPU 0 instructions: 100000004 cycles: 160656244 cumulative IPC: 0.6224 (Simulation time: 04 hr 26 min 40 sec)
Simulation complete CPU 3 instructions: 642593280 cycles: 160656244 cumulative IPC: 4 (Simulation time: 04 hr 26 min 40 sec)
Simulation complete CPU 2 instructions: 642598152 cycles: 160656244 cumulative IPC: 4 (Simulation time: 04 hr 26 min 40 sec)
Simulation complete CPU 1 instructions: 303786386 cycles: 160656244 cumulative IPC: 1.891 (Simulation time: 04 hr 26 min 40 sec)
Simulation complete CPU 0 instructions: 100000004 cycles: 160656244 cumulative IPC: 0.6224 (Simulation time: 04 hr 26 min 40 sec)

ChampSim completed all CPUs

=== Simulation ===
CPU 0 runs /home/harshraj/COALESCE-Hashed-Perceptron-Cache-Replacement-Policy/simulator/traces/barnes_4t0.champsimtrace
CPU 1 runs /home/harshraj/COALESCE-Hashed-Perceptron-Cache-Replacement-Policy/simulator/traces/barnes_4t1.champsimtrace
CPU 2 runs /home/harshraj/COALESCE-Hashed-Perceptron-Cache-Replacement-Policy/simulator/traces/barnes_4t2.champsimtrace
CPU 3 runs /home/harshraj/COALESCE-Hashed-Perceptron-Cache-Replacement-Policy/simulator/traces/barnes_4t3.champsimtrace

Total Simulation Statistics (not including warmup)

CPU 3 cumulative IPC: 4 instructions: 642593280 cycles: 160656244
CPU 3 Branch Prediction Accuracy: -% MPKI: 0 Average ROB Occupancy at Mispredict: -
Branch type MPKI
BRANCH_DIRECT_JUMP: 0
BRANCH_INDIRECT: 0
BRANCH_CONDITIONAL: 0
BRANCH_DIRECT_CALL: 0
BRANCH_INDIRECT_CALL: 0
BRANCH_RETURN: 0


CPU 2 cumulative IPC: 4 instructions: 642598152 cycles: 160656244
CPU 2 Branch Prediction Accuracy: -% MPKI: 0 Average ROB Occupancy at Mispredict: -
Branch type MPKI
BRANCH_DIRECT_JUMP: 0
BRANCH_INDIRECT: 0
BRANCH_CONDITIONAL: 0
BRANCH_DIRECT_CALL: 0
BRANCH_INDIRECT_CALL: 0
BRANCH_RETURN: 0


CPU 1 cumulative IPC: 1.891 instructions: 303786386 cycles: 160656244
CPU 1 Branch Prediction Accuracy: -% MPKI: 0 Average ROB Occupancy at Mispredict: -
Branch type MPKI
BRANCH_DIRECT_JUMP: 0
BRANCH_INDIRECT: 0
BRANCH_CONDITIONAL: 0
BRANCH_DIRECT_CALL: 0
BRANCH_INDIRECT_CALL: 0
BRANCH_RETURN: 0


CPU 0 cumulative IPC: 0.6224 instructions: 100000004 cycles: 160656244
CPU 0 Branch Prediction Accuracy: -% MPKI: 0 Average ROB Occupancy at Mispredict: -
Branch type MPKI
BRANCH_DIRECT_JUMP: 0
BRANCH_INDIRECT: 0
BRANCH_CONDITIONAL: 0
BRANCH_DIRECT_CALL: 0
BRANCH_INDIRECT_CALL: 0
BRANCH_RETURN: 0

cpu3->cpu3_STLB TOTAL        ACCESS:         18 HIT:          8 MISS:         10 MSHR_MERGE:          0
cpu3->cpu3_STLB LOAD         ACCESS:         18 HIT:          8 MISS:         10 MSHR_MERGE:          0
cpu3->cpu3_STLB RFO          ACCESS:          0 HIT:          0 MISS:          0 MSHR_MERGE:          0
cpu3->cpu3_STLB PREFETCH     ACCESS:          0 HIT:          0 MISS:          0 MSHR_MERGE:          0
cpu3->cpu3_STLB WRITE        ACCESS:          0 HIT:          0 MISS:          0 MSHR_MERGE:          0
cpu3->cpu3_STLB TRANSLATION  ACCESS:          0 HIT:          0 MISS:          0 MSHR_MERGE:          0
cpu3->cpu3_STLB PREFETCH REQUESTED:          0 ISSUED:          0 USEFUL:          0 USELESS:          0
cpu3->cpu3_STLB AVERAGE MISS LATENCY: 721.6 cycles
cpu3_STLB COHERENCE INVALIDATIONS:          0
cpu3_STLB COHERENCE WRITE-HIT OTHER-SHARER EVENTS:          0
cpu3->cpu3_L2C TOTAL        ACCESS:         58 HIT:          4 MISS:         54 MSHR_MERGE:          0
cpu3->cpu3_L2C LOAD         ACCESS:         38 HIT:          4 MISS:         34 MSHR_MERGE:          0
cpu3->cpu3_L2C RFO          ACCESS:          0 HIT:          0 MISS:          0 MSHR_MERGE:          0
cpu3->cpu3_L2C PREFETCH     ACCESS:          0 HIT:          0 MISS:          0 MSHR_MERGE:          0
cpu3->cpu3_L2C WRITE        ACCESS:          0 HIT:          0 MISS:          0 MSHR_MERGE:          0
cpu3->cpu3_L2C TRANSLATION  ACCESS:         20 HIT:          0 MISS:         20 MSHR_MERGE:          0
cpu3->cpu3_L2C PREFETCH REQUESTED:          0 ISSUED:          0 USEFUL:          0 USELESS:          0
cpu3->cpu3_L2C AVERAGE MISS LATENCY: 217.4 cycles
cpu3_L2C COHERENCE INVALIDATIONS:          0
cpu3_L2C COHERENCE WRITE-HIT OTHER-SHARER EVENTS:          0
cpu3->cpu3_L1I TOTAL        ACCESS:  100295053 HIT:  100295000 MISS:         53 MSHR_MERGE:         15
cpu3->cpu3_L1I LOAD         ACCESS:  100295053 HIT:  100295000 MISS:         53 MSHR_MERGE:         15
cpu3->cpu3_L1I RFO          ACCESS:          0 HIT:          0 MISS:          0 MSHR_MERGE:          0
cpu3->cpu3_L1I PREFETCH     ACCESS:          0 HIT:          0 MISS:          0 MSHR_MERGE:          0
cpu3->cpu3_L1I WRITE        ACCESS:          0 HIT:          0 MISS:          0 MSHR_MERGE:          0
cpu3->cpu3_L1I TRANSLATION  ACCESS:          0 HIT:          0 MISS:          0 MSHR_MERGE:          0
cpu3->cpu3_L1I PREFETCH REQUESTED:          0 ISSUED:          0 USEFUL:          0 USELESS:          0
cpu3->cpu3_L1I AVERAGE MISS LATENCY: 208 cycles
cpu3_L1I COHERENCE INVALIDATIONS:          0
cpu3_L1I COHERENCE WRITE-HIT OTHER-SHARER EVENTS:          0
cpu3->cpu3_L1D TOTAL        ACCESS:         20 HIT:          0 MISS:         20 MSHR_MERGE:          0
cpu3->cpu3_L1D LOAD         ACCESS:          0 HIT:          0 MISS:          0 MSHR_MERGE:          0
cpu3->cpu3_L1D RFO          ACCESS:          0 HIT:          0 MISS:          0 MSHR_MERGE:          0
cpu3->cpu3_L1D PREFETCH     ACCESS:          0 HIT:          0 MISS:          0 MSHR_MERGE:          0
cpu3->cpu3_L1D WRITE        ACCESS:          0 HIT:          0 MISS:          0 MSHR_MERGE:          0
cpu3->cpu3_L1D TRANSLATION  ACCESS:         20 HIT:          0 MISS:         20 MSHR_MERGE:          0
cpu3->cpu3_L1D PREFETCH REQUESTED:          0 ISSUED:          0 USEFUL:          0 USELESS:          0
cpu3->cpu3_L1D AVERAGE MISS LATENCY: 214.8 cycles
cpu3_L1D COHERENCE INVALIDATIONS:          0
cpu3_L1D COHERENCE WRITE-HIT OTHER-SHARER EVENTS:          0
cpu3->cpu3_ITLB TOTAL        ACCESS:   79197132 HIT:   79197100 MISS:         32 MSHR_MERGE:         14
cpu3->cpu3_ITLB LOAD         ACCESS:   79197132 HIT:   79197100 MISS:         32 MSHR_MERGE:         14
cpu3->cpu3_ITLB RFO          ACCESS:          0 HIT:          0 MISS:          0 MSHR_MERGE:          0
cpu3->cpu3_ITLB PREFETCH     ACCESS:          0 HIT:          0 MISS:          0 MSHR_MERGE:          0
cpu3->cpu3_ITLB WRITE        ACCESS:          0 HIT:          0 MISS:          0 MSHR_MERGE:          0
cpu3->cpu3_ITLB TRANSLATION  ACCESS:          0 HIT:          0 MISS:          0 MSHR_MERGE:          0
cpu3->cpu3_ITLB PREFETCH REQUESTED:          0 ISSUED:          0 USEFUL:          0 USELESS:          0
cpu3->cpu3_ITLB AVERAGE MISS LATENCY: 405.4 cycles
cpu3_ITLB COHERENCE INVALIDATIONS:          0
cpu3_ITLB COHERENCE WRITE-HIT OTHER-SHARER EVENTS:          0
cpu3_DTLB COHERENCE INVALIDATIONS:          0
cpu3_DTLB COHERENCE WRITE-HIT OTHER-SHARER EVENTS:          0
cpu2->cpu2_STLB TOTAL        ACCESS:         17 HIT:          7 MISS:         10 MSHR_MERGE:          0
cpu2->cpu2_STLB LOAD         ACCESS:         17 HIT:          7 MISS:         10 MSHR_MERGE:          0
cpu2->cpu2_STLB RFO          ACCESS:          0 HIT:          0 MISS:          0 MSHR_MERGE:          0
cpu2->cpu2_STLB PREFETCH     ACCESS:          0 HIT:          0 MISS:          0 MSHR_MERGE:          0
cpu2->cpu2_STLB WRITE        ACCESS:          0 HIT:          0 MISS:          0 MSHR_MERGE:          0
cpu2->cpu2_STLB TRANSLATION  ACCESS:          0 HIT:          0 MISS:          0 MSHR_MERGE:          0
cpu2->cpu2_STLB PREFETCH REQUESTED:          0 ISSUED:          0 USEFUL:          0 USELESS:          0
cpu2->cpu2_STLB AVERAGE MISS LATENCY: 600.9 cycles
cpu2_STLB COHERENCE INVALIDATIONS:          0
cpu2_STLB COHERENCE WRITE-HIT OTHER-SHARER EVENTS:          0
cpu2->cpu2_L2C TOTAL        ACCESS:         58 HIT:          4 MISS:         54 MSHR_MERGE:          0
cpu2->cpu2_L2C LOAD         ACCESS:         38 HIT:          4 MISS:         34 MSHR_MERGE:          0
cpu2->cpu2_L2C RFO          ACCESS:          0 HIT:          0 MISS:          0 MSHR_MERGE:          0
cpu2->cpu2_L2C PREFETCH     ACCESS:          0 HIT:          0 MISS:          0 MSHR_MERGE:          0
cpu2->cpu2_L2C WRITE        ACCESS:          0 HIT:          0 MISS:          0 MSHR_MERGE:          0
cpu2->cpu2_L2C TRANSLATION  ACCESS:         20 HIT:          0 MISS:         20 MSHR_MERGE:          0
cpu2->cpu2_L2C PREFETCH REQUESTED:          0 ISSUED:          0 USEFUL:          0 USELESS:          0
cpu2->cpu2_L2C AVERAGE MISS LATENCY: 198.9 cycles
cpu2_L2C COHERENCE INVALIDATIONS:          0
cpu2_L2C COHERENCE WRITE-HIT OTHER-SHARER EVENTS:          0
cpu2->cpu2_L1I TOTAL        ACCESS:  103241057 HIT:  103241005 MISS:         52 MSHR_MERGE:         14
cpu2->cpu2_L1I LOAD         ACCESS:  103241057 HIT:  103241005 MISS:         52 MSHR_MERGE:         14
cpu2->cpu2_L1I RFO          ACCESS:          0 HIT:          0 MISS:          0 MSHR_MERGE:          0
cpu2->cpu2_L1I PREFETCH     ACCESS:          0 HIT:          0 MISS:          0 MSHR_MERGE:          0
cpu2->cpu2_L1I WRITE        ACCESS:          0 HIT:          0 MISS:          0 MSHR_MERGE:          0
cpu2->cpu2_L1I TRANSLATION  ACCESS:          0 HIT:          0 MISS:          0 MSHR_MERGE:          0
cpu2->cpu2_L1I PREFETCH REQUESTED:          0 ISSUED:          0 USEFUL:          0 USELESS:          0
cpu2->cpu2_L1I AVERAGE MISS LATENCY: 192.4 cycles
cpu2_L1I COHERENCE INVALIDATIONS:          0
cpu2_L1I COHERENCE WRITE-HIT OTHER-SHARER EVENTS:          0
cpu2->cpu2_L1D TOTAL        ACCESS:         20 HIT:          0 MISS:         20 MSHR_MERGE:          0
cpu2->cpu2_L1D LOAD         ACCESS:          0 HIT:          0 MISS:          0 MSHR_MERGE:          0
cpu2->cpu2_L1D RFO          ACCESS:          0 HIT:          0 MISS:          0 MSHR_MERGE:          0
cpu2->cpu2_L1D PREFETCH     ACCESS:          0 HIT:          0 MISS:          0 MSHR_MERGE:          0
cpu2->cpu2_L1D WRITE        ACCESS:          0 HIT:          0 MISS:          0 MSHR_MERGE:          0
cpu2->cpu2_L1D TRANSLATION  ACCESS:         20 HIT:          0 MISS:         20 MSHR_MERGE:          0
cpu2->cpu2_L1D PREFETCH REQUESTED:          0 ISSUED:          0 USEFUL:          0 USELESS:          0
cpu2->cpu2_L1D AVERAGE MISS LATENCY: 194.4 cycles
cpu2_L1D COHERENCE INVALIDATIONS:          0
cpu2_L1D COHERENCE WRITE-HIT OTHER-SHARER EVENTS:          0
cpu2->cpu2_ITLB TOTAL        ACCESS:   79659134 HIT:   79659105 MISS:         29 MSHR_MERGE:         12
cpu2->cpu2_ITLB LOAD         ACCESS:   79659134 HIT:   79659105 MISS:         29 MSHR_MERGE:         12
cpu2->cpu2_ITLB RFO          ACCESS:          0 HIT:          0 MISS:          0 MSHR_MERGE:          0
cpu2->cpu2_ITLB PREFETCH     ACCESS:          0 HIT:          0 MISS:          0 MSHR_MERGE:          0
cpu2->cpu2_ITLB WRITE        ACCESS:          0 HIT:          0 MISS:          0 MSHR_MERGE:          0
cpu2->cpu2_ITLB TRANSLATION  ACCESS:          0 HIT:          0 MISS:          0 MSHR_MERGE:          0
cpu2->cpu2_ITLB PREFETCH REQUESTED:          0 ISSUED:          0 USEFUL:          0 USELESS:          0
cpu2->cpu2_ITLB AVERAGE MISS LATENCY: 358.1 cycles
cpu2_ITLB COHERENCE INVALIDATIONS:          0
cpu2_ITLB COHERENCE WRITE-HIT OTHER-SHARER EVENTS:          0
cpu2_DTLB COHERENCE INVALIDATIONS:          0
cpu2_DTLB COHERENCE WRITE-HIT OTHER-SHARER EVENTS:          0
cpu1->cpu1_STLB TOTAL        ACCESS:    1134894 HIT:    1134726 MISS:        168 MSHR_MERGE:          0
cpu1->cpu1_STLB LOAD         ACCESS:    1134894 HIT:    1134726 MISS:        168 MSHR_MERGE:          0
cpu1->cpu1_STLB RFO          ACCESS:          0 HIT:          0 MISS:          0 MSHR_MERGE:          0
cpu1->cpu1_STLB PREFETCH     ACCESS:          0 HIT:          0 MISS:          0 MSHR_MERGE:          0
cpu1->cpu1_STLB WRITE        ACCESS:          0 HIT:          0 MISS:          0 MSHR_MERGE:          0
cpu1->cpu1_STLB TRANSLATION  ACCESS:          0 HIT:          0 MISS:          0 MSHR_MERGE:          0
cpu1->cpu1_STLB PREFETCH REQUESTED:          0 ISSUED:          0 USEFUL:          0 USELESS:          0
cpu1->cpu1_STLB AVERAGE MISS LATENCY: 650 cycles
cpu1_STLB COHERENCE INVALIDATIONS:          0
cpu1_STLB COHERENCE WRITE-HIT OTHER-SHARER EVENTS:          0
cpu1->cpu1_L2C TOTAL        ACCESS:    3384592 HIT:    3094612 MISS:     289980 MSHR_MERGE:          0
cpu1->cpu1_L2C LOAD         ACCESS:    3384395 HIT:    3094612 MISS:     289783 MSHR_MERGE:          0
cpu1->cpu1_L2C RFO          ACCESS:          0 HIT:          0 MISS:          0 MSHR_MERGE:          0
cpu1->cpu1_L2C PREFETCH     ACCESS:          0 HIT:          0 MISS:          0 MSHR_MERGE:          0
cpu1->cpu1_L2C WRITE        ACCESS:          0 HIT:          0 MISS:          0 MSHR_MERGE:          0
cpu1->cpu1_L2C TRANSLATION  ACCESS:        197 HIT:          0 MISS:        197 MSHR_MERGE:          0
cpu1->cpu1_L2C PREFETCH REQUESTED:          0 ISSUED:          0 USEFUL:          0 USELESS:          0
cpu1->cpu1_L2C AVERAGE MISS LATENCY: 117.4 cycles
cpu1_L2C COHERENCE INVALIDATIONS:          0
cpu1_L2C COHERENCE WRITE-HIT OTHER-SHARER EVENTS:          0
cpu1->cpu1_L1I TOTAL        ACCESS:   63891101 HIT:   60449906 MISS:    3441195 MSHR_MERGE:      56800
cpu1->cpu1_L1I LOAD         ACCESS:   63891101 HIT:   60449906 MISS:    3441195 MSHR_MERGE:      56800
cpu1->cpu1_L1I RFO          ACCESS:          0 HIT:          0 MISS:          0 MSHR_MERGE:          0
cpu1->cpu1_L1I PREFETCH     ACCESS:          0 HIT:          0 MISS:          0 MSHR_MERGE:          0
cpu1->cpu1_L1I WRITE        ACCESS:          0 HIT:          0 MISS:          0 MSHR_MERGE:          0
cpu1->cpu1_L1I TRANSLATION  ACCESS:          0 HIT:          0 MISS:          0 MSHR_MERGE:          0
cpu1->cpu1_L1I PREFETCH REQUESTED:          0 ISSUED:          0 USEFUL:          0 USELESS:          0
cpu1->cpu1_L1I AVERAGE MISS LATENCY: 17.31 cycles
cpu1_L1I COHERENCE INVALIDATIONS:          0
cpu1_L1I COHERENCE WRITE-HIT OTHER-SHARER EVENTS:          0
cpu1->cpu1_L1D TOTAL        ACCESS:        339 HIT:        142 MISS:        197 MSHR_MERGE:          0
cpu1->cpu1_L1D LOAD         ACCESS:          0 HIT:          0 MISS:          0 MSHR_MERGE:          0
cpu1->cpu1_L1D RFO          ACCESS:          0 HIT:          0 MISS:          0 MSHR_MERGE:          0
cpu1->cpu1_L1D PREFETCH     ACCESS:          0 HIT:          0 MISS:          0 MSHR_MERGE:          0
cpu1->cpu1_L1D WRITE        ACCESS:          0 HIT:          0 MISS:          0 MSHR_MERGE:          0
cpu1->cpu1_L1D TRANSLATION  ACCESS:        339 HIT:        142 MISS:        197 MSHR_MERGE:          0
cpu1->cpu1_L1D PREFETCH REQUESTED:          0 ISSUED:          0 USEFUL:          0 USELESS:          0
cpu1->cpu1_L1D AVERAGE MISS LATENCY: 206.7 cycles
cpu1_L1D COHERENCE INVALIDATIONS:          0
cpu1_L1D COHERENCE WRITE-HIT OTHER-SHARER EVENTS:          0
cpu1->cpu1_ITLB TOTAL        ACCESS:   61409764 HIT:   60213859 MISS:    1195905 MSHR_MERGE:      61011
cpu1->cpu1_ITLB LOAD         ACCESS:   61409764 HIT:   60213859 MISS:    1195905 MSHR_MERGE:      61011
cpu1->cpu1_ITLB RFO          ACCESS:          0 HIT:          0 MISS:          0 MSHR_MERGE:          0
cpu1->cpu1_ITLB PREFETCH     ACCESS:          0 HIT:          0 MISS:          0 MSHR_MERGE:          0
cpu1->cpu1_ITLB WRITE        ACCESS:          0 HIT:          0 MISS:          0 MSHR_MERGE:          0
cpu1->cpu1_ITLB TRANSLATION  ACCESS:          0 HIT:          0 MISS:          0 MSHR_MERGE:          0
cpu1->cpu1_ITLB PREFETCH REQUESTED:          0 ISSUED:          0 USEFUL:          0 USELESS:          0
cpu1->cpu1_ITLB AVERAGE MISS LATENCY: 4.096 cycles
cpu1_ITLB COHERENCE INVALIDATIONS:          0
cpu1_ITLB COHERENCE WRITE-HIT OTHER-SHARER EVENTS:          0
cpu1_DTLB COHERENCE INVALIDATIONS:          0
cpu1_DTLB COHERENCE WRITE-HIT OTHER-SHARER EVENTS:          0
cpu0->cpu0_STLB TOTAL        ACCESS:    3021053 HIT:    3008123 MISS:      12930 MSHR_MERGE:          0
cpu0->cpu0_STLB LOAD         ACCESS:    3021053 HIT:    3008123 MISS:      12930 MSHR_MERGE:          0
cpu0->cpu0_STLB RFO          ACCESS:          0 HIT:          0 MISS:          0 MSHR_MERGE:          0
cpu0->cpu0_STLB PREFETCH     ACCESS:          0 HIT:          0 MISS:          0 MSHR_MERGE:          0
cpu0->cpu0_STLB WRITE        ACCESS:          0 HIT:          0 MISS:          0 MSHR_MERGE:          0
cpu0->cpu0_STLB TRANSLATION  ACCESS:          0 HIT:          0 MISS:          0 MSHR_MERGE:          0
cpu0->cpu0_STLB PREFETCH REQUESTED:          0 ISSUED:          0 USEFUL:          0 USELESS:          0
cpu0->cpu0_STLB AVERAGE MISS LATENCY: 272 cycles
cpu0_STLB COHERENCE INVALIDATIONS:          0
cpu0_STLB COHERENCE WRITE-HIT OTHER-SHARER EVENTS:          0
cpu0->cpu0_L2C TOTAL        ACCESS:    4709786 HIT:    4299294 MISS:     410492 MSHR_MERGE:          0
cpu0->cpu0_L2C LOAD         ACCESS:    3759127 HIT:    3414549 MISS:     344578 MSHR_MERGE:          0
cpu0->cpu0_L2C RFO          ACCESS:     343356 HIT:     291462 MISS:      51894 MSHR_MERGE:          0
cpu0->cpu0_L2C PREFETCH     ACCESS:          0 HIT:          0 MISS:          0 MSHR_MERGE:          0
cpu0->cpu0_L2C WRITE        ACCESS:     579115 HIT:     578833 MISS:        282 MSHR_MERGE:          0
cpu0->cpu0_L2C TRANSLATION  ACCESS:      28188 HIT:      14450 MISS:      13738 MSHR_MERGE:          0
cpu0->cpu0_L2C PREFETCH REQUESTED:          0 ISSUED:          0 USEFUL:          0 USELESS:          0
cpu0->cpu0_L2C AVERAGE MISS LATENCY: 134 cycles
cpu0_L2C COHERENCE INVALIDATIONS:          0
cpu0_L2C COHERENCE WRITE-HIT OTHER-SHARER EVENTS:          0
cpu0->cpu0_L1I TOTAL        ACCESS:   25249460 HIT:   25249441 MISS:         19 MSHR_MERGE:          6
cpu0->cpu0_L1I LOAD         ACCESS:   25249460 HIT:   25249441 MISS:         19 MSHR_MERGE:          6
cpu0->cpu0_L1I RFO          ACCESS:          0 HIT:          0 MISS:          0 MSHR_MERGE:          0
cpu0->cpu0_L1I PREFETCH     ACCESS:          0 HIT:          0 MISS:          0 MSHR_MERGE:          0
cpu0->cpu0_L1I WRITE        ACCESS:          0 HIT:          0 MISS:          0 MSHR_MERGE:          0
cpu0->cpu0_L1I TRANSLATION  ACCESS:          0 HIT:          0 MISS:          0 MSHR_MERGE:          0
cpu0->cpu0_L1I PREFETCH REQUESTED:          0 ISSUED:          0 USEFUL:          0 USELESS:          0
cpu0->cpu0_L1I AVERAGE MISS LATENCY: 211.7 cycles
cpu0_L1I COHERENCE INVALIDATIONS:          0
cpu0_L1I COHERENCE WRITE-HIT OTHER-SHARER EVENTS:          0
cpu0->cpu0_L1D TOTAL        ACCESS:   63851471 HIT:   59644516 MISS:    4206955 MSHR_MERGE:      75811
cpu0->cpu0_L1D LOAD         ACCESS:   16917802 HIT:   13149269 MISS:    3768533 MSHR_MERGE:       9335
cpu0->cpu0_L1D RFO          ACCESS:          0 HIT:          0 MISS:          0 MSHR_MERGE:          0
cpu0->cpu0_L1D PREFETCH     ACCESS:          0 HIT:          0 MISS:          0 MSHR_MERGE:          0
cpu0->cpu0_L1D WRITE        ACCESS:   46902331 HIT:   46492105 MISS:     410226 MSHR_MERGE:      66468
cpu0->cpu0_L1D TRANSLATION  ACCESS:      31338 HIT:       3142 MISS:      28196 MSHR_MERGE:          8
cpu0->cpu0_L1D PREFETCH REQUESTED:          0 ISSUED:          0 USEFUL:          0 USELESS:          0
cpu0->cpu0_L1D AVERAGE MISS LATENCY: 20.62 cycles
cpu0_L1D COHERENCE INVALIDATIONS:          0
cpu0_L1D COHERENCE WRITE-HIT OTHER-SHARER EVENTS:          0
cpu0->cpu0_ITLB TOTAL        ACCESS:   22750520 HIT:   22750520 MISS:          0 MSHR_MERGE:          0
cpu0->cpu0_ITLB LOAD         ACCESS:   22750520 HIT:   22750520 MISS:          0 MSHR_MERGE:          0
cpu0->cpu0_ITLB RFO          ACCESS:          0 HIT:          0 MISS:          0 MSHR_MERGE:          0
cpu0->cpu0_ITLB PREFETCH     ACCESS:          0 HIT:          0 MISS:          0 MSHR_MERGE:          0
cpu0->cpu0_ITLB WRITE        ACCESS:          0 HIT:          0 MISS:          0 MSHR_MERGE:          0
cpu0->cpu0_ITLB TRANSLATION  ACCESS:          0 HIT:          0 MISS:          0 MSHR_MERGE:          0
cpu0->cpu0_ITLB PREFETCH REQUESTED:          0 ISSUED:          0 USEFUL:          0 USELESS:          0
cpu0->cpu0_ITLB AVERAGE MISS LATENCY: - cycles
cpu0_ITLB COHERENCE INVALIDATIONS:          0
cpu0_ITLB COHERENCE WRITE-HIT OTHER-SHARER EVENTS:          0
cpu0->cpu0_DTLB TOTAL        ACCESS:   62012836 HIT:   58820231 MISS:    3192605 MSHR_MERGE:     171552
cpu0->cpu0_DTLB LOAD         ACCESS:   62012836 HIT:   58820231 MISS:    3192605 MSHR_MERGE:     171552
cpu0->cpu0_DTLB RFO          ACCESS:          0 HIT:          0 MISS:          0 MSHR_MERGE:          0
cpu0->cpu0_DTLB PREFETCH     ACCESS:          0 HIT:          0 MISS:          0 MSHR_MERGE:          0
cpu0->cpu0_DTLB WRITE        ACCESS:          0 HIT:          0 MISS:          0 MSHR_MERGE:          0
cpu0->cpu0_DTLB TRANSLATION  ACCESS:          0 HIT:          0 MISS:          0 MSHR_MERGE:          0
cpu0->cpu0_DTLB PREFETCH REQUESTED:          0 ISSUED:          0 USEFUL:          0 USELESS:          0
cpu0->cpu0_DTLB AVERAGE MISS LATENCY: 5.169 cycles
cpu0_DTLB COHERENCE INVALIDATIONS:          0
cpu0_DTLB COHERENCE WRITE-HIT OTHER-SHARER EVENTS:          0
cpu0->LLC TOTAL        ACCESS:     514965 HIT:     211026 MISS:     303939 MSHR_MERGE:          1
cpu0->LLC LOAD         ACCESS:     344578 HIT:     133692 MISS:     210886 MSHR_MERGE:          1
cpu0->LLC RFO          ACCESS:      51894 HIT:      24487 MISS:      27407 MSHR_MERGE:          0
cpu0->LLC PREFETCH     ACCESS:          0 HIT:          0 MISS:          0 MSHR_MERGE:          0
cpu0->LLC WRITE        ACCESS:     104755 HIT:      52633 MISS:      52122 MSHR_MERGE:          0
cpu0->LLC TRANSLATION  ACCESS:      13738 HIT:        214 MISS:      13524 MSHR_MERGE:          0
cpu0->LLC PREFETCH REQUESTED:          0 ISSUED:          0 USEFUL:          0 USELESS:          0
cpu0->LLC AVERAGE MISS LATENCY: 258.7 cycles
cpu1->LLC TOTAL        ACCESS:     289980 HIT:     124912 MISS:     165068 MSHR_MERGE:          0
cpu1->LLC LOAD         ACCESS:     289783 HIT:     124912 MISS:     164871 MSHR_MERGE:          0
cpu1->LLC RFO          ACCESS:          0 HIT:          0 MISS:          0 MSHR_MERGE:          0
cpu1->LLC PREFETCH     ACCESS:          0 HIT:          0 MISS:          0 MSHR_MERGE:          0
cpu1->LLC WRITE        ACCESS:          0 HIT:          0 MISS:          0 MSHR_MERGE:          0
cpu1->LLC TRANSLATION  ACCESS:        197 HIT:          0 MISS:        197 MSHR_MERGE:          0
cpu1->LLC PREFETCH REQUESTED:          0 ISSUED:          0 USEFUL:          0 USELESS:          0
cpu1->LLC AVERAGE MISS LATENCY: 476.3 cycles
cpu2->LLC TOTAL        ACCESS:         54 HIT:          0 MISS:         54 MSHR_MERGE:          0
cpu2->LLC LOAD         ACCESS:         34 HIT:          0 MISS:         34 MSHR_MERGE:          0
cpu2->LLC RFO          ACCESS:          0 HIT:          0 MISS:          0 MSHR_MERGE:          0
cpu2->LLC PREFETCH     ACCESS:          0 HIT:          0 MISS:          0 MSHR_MERGE:          0
cpu2->LLC WRITE        ACCESS:          0 HIT:          0 MISS:          0 MSHR_MERGE:          0
cpu2->LLC TRANSLATION  ACCESS:         20 HIT:          0 MISS:         20 MSHR_MERGE:          0
cpu2->LLC PREFETCH REQUESTED:          0 ISSUED:          0 USEFUL:          0 USELESS:          0
cpu2->LLC AVERAGE MISS LATENCY: 1.456e+06 cycles
cpu3->LLC TOTAL        ACCESS:         54 HIT:          0 MISS:         54 MSHR_MERGE:          0
cpu3->LLC LOAD         ACCESS:         34 HIT:          0 MISS:         34 MSHR_MERGE:          0
cpu3->LLC RFO          ACCESS:          0 HIT:          0 MISS:          0 MSHR_MERGE:          0
cpu3->LLC PREFETCH     ACCESS:          0 HIT:          0 MISS:          0 MSHR_MERGE:          0
cpu3->LLC WRITE        ACCESS:          0 HIT:          0 MISS:          0 MSHR_MERGE:          0
cpu3->LLC TRANSLATION  ACCESS:         20 HIT:          0 MISS:         20 MSHR_MERGE:          0
cpu3->LLC PREFETCH REQUESTED:          0 ISSUED:          0 USEFUL:          0 USELESS:          0
cpu3->LLC AVERAGE MISS LATENCY: 1.456e+06 cycles
LLC COHERENCE INVALIDATIONS:      29511
LLC COHERENCE WRITE-HIT OTHER-SHARER EVENTS:      29511

Region of Interest Statistics

CPU 3 cumulative IPC: 4 instructions: 100000000 cycles: 25000000
CPU 3 Branch Prediction Accuracy: -% MPKI: 0 Average ROB Occupancy at Mispredict: -
Branch type MPKI
BRANCH_DIRECT_JUMP: 0
BRANCH_INDIRECT: 0
BRANCH_CONDITIONAL: 0
BRANCH_DIRECT_CALL: 0
BRANCH_INDIRECT_CALL: 0
BRANCH_RETURN: 0


CPU 2 cumulative IPC: 4 instructions: 100000000 cycles: 25000000
CPU 2 Branch Prediction Accuracy: -% MPKI: 0 Average ROB Occupancy at Mispredict: -
Branch type MPKI
BRANCH_DIRECT_JUMP: 0
BRANCH_INDIRECT: 0
BRANCH_CONDITIONAL: 0
BRANCH_DIRECT_CALL: 0
BRANCH_INDIRECT_CALL: 0
BRANCH_RETURN: 0


CPU 1 cumulative IPC: 2.019 instructions: 100000001 cycles: 49532774
CPU 1 Branch Prediction Accuracy: -% MPKI: 0 Average ROB Occupancy at Mispredict: -
Branch type MPKI
BRANCH_DIRECT_JUMP: 0
BRANCH_INDIRECT: 0
BRANCH_CONDITIONAL: 0
BRANCH_DIRECT_CALL: 0
BRANCH_INDIRECT_CALL: 0
BRANCH_RETURN: 0


CPU 0 cumulative IPC: 0.6224 instructions: 100000004 cycles: 160656244
CPU 0 Branch Prediction Accuracy: -% MPKI: 0 Average ROB Occupancy at Mispredict: -
Branch type MPKI
BRANCH_DIRECT_JUMP: 0
BRANCH_INDIRECT: 0
BRANCH_CONDITIONAL: 0
BRANCH_DIRECT_CALL: 0
BRANCH_INDIRECT_CALL: 0
BRANCH_RETURN: 0

cpu3->cpu3_STLB TOTAL        ACCESS:         18 HIT:          8 MISS:         10 MSHR_MERGE:          0
cpu3->cpu3_STLB LOAD         ACCESS:         18 HIT:          8 MISS:         10 MSHR_MERGE:          0
cpu3->cpu3_STLB RFO          ACCESS:          0 HIT:          0 MISS:          0 MSHR_MERGE:          0
cpu3->cpu3_STLB PREFETCH     ACCESS:          0 HIT:          0 MISS:          0 MSHR_MERGE:          0
cpu3->cpu3_STLB WRITE        ACCESS:          0 HIT:          0 MISS:          0 MSHR_MERGE:          0
cpu3->cpu3_STLB TRANSLATION  ACCESS:          0 HIT:          0 MISS:          0 MSHR_MERGE:          0
cpu3->cpu3_STLB PREFETCH REQUESTED:          0 ISSUED:          0 USEFUL:          0 USELESS:          0
cpu3->cpu3_STLB AVERAGE MISS LATENCY: 721.6 cycles
cpu3_STLB COHERENCE INVALIDATIONS:          0
cpu3_STLB COHERENCE WRITE-HIT OTHER-SHARER EVENTS:          0
cpu3->cpu3_L2C TOTAL        ACCESS:         58 HIT:          4 MISS:         54 MSHR_MERGE:          0
cpu3->cpu3_L2C LOAD         ACCESS:         38 HIT:          4 MISS:         34 MSHR_MERGE:          0
cpu3->cpu3_L2C RFO          ACCESS:          0 HIT:          0 MISS:          0 MSHR_MERGE:          0
cpu3->cpu3_L2C PREFETCH     ACCESS:          0 HIT:          0 MISS:          0 MSHR_MERGE:          0
cpu3->cpu3_L2C WRITE        ACCESS:          0 HIT:          0 MISS:          0 MSHR_MERGE:          0
cpu3->cpu3_L2C TRANSLATION  ACCESS:         20 HIT:          0 MISS:         20 MSHR_MERGE:          0
cpu3->cpu3_L2C PREFETCH REQUESTED:          0 ISSUED:          0 USEFUL:          0 USELESS:          0
cpu3->cpu3_L2C AVERAGE MISS LATENCY: 217.4 cycles
cpu3_L2C COHERENCE INVALIDATIONS:          0
cpu3_L2C COHERENCE WRITE-HIT OTHER-SHARER EVENTS:          0
cpu3->cpu3_L1I TOTAL        ACCESS:  100295053 HIT:  100295000 MISS:         53 MSHR_MERGE:         15
cpu3->cpu3_L1I LOAD         ACCESS:  100295053 HIT:  100295000 MISS:         53 MSHR_MERGE:         15
cpu3->cpu3_L1I RFO          ACCESS:          0 HIT:          0 MISS:          0 MSHR_MERGE:          0
cpu3->cpu3_L1I PREFETCH     ACCESS:          0 HIT:          0 MISS:          0 MSHR_MERGE:          0
cpu3->cpu3_L1I WRITE        ACCESS:          0 HIT:          0 MISS:          0 MSHR_MERGE:          0
cpu3->cpu3_L1I TRANSLATION  ACCESS:          0 HIT:          0 MISS:          0 MSHR_MERGE:          0
cpu3->cpu3_L1I PREFETCH REQUESTED:          0 ISSUED:          0 USEFUL:          0 USELESS:          0
cpu3->cpu3_L1I AVERAGE MISS LATENCY: 208 cycles
cpu3_L1I COHERENCE INVALIDATIONS:          0
cpu3_L1I COHERENCE WRITE-HIT OTHER-SHARER EVENTS:          0
cpu3->cpu3_L1D TOTAL        ACCESS:         20 HIT:          0 MISS:         20 MSHR_MERGE:          0
cpu3->cpu3_L1D LOAD         ACCESS:          0 HIT:          0 MISS:          0 MSHR_MERGE:          0
cpu3->cpu3_L1D RFO          ACCESS:          0 HIT:          0 MISS:          0 MSHR_MERGE:          0
cpu3->cpu3_L1D PREFETCH     ACCESS:          0 HIT:          0 MISS:          0 MSHR_MERGE:          0
cpu3->cpu3_L1D WRITE        ACCESS:          0 HIT:          0 MISS:          0 MSHR_MERGE:          0
cpu3->cpu3_L1D TRANSLATION  ACCESS:         20 HIT:          0 MISS:         20 MSHR_MERGE:          0
cpu3->cpu3_L1D PREFETCH REQUESTED:          0 ISSUED:          0 USEFUL:          0 USELESS:          0
cpu3->cpu3_L1D AVERAGE MISS LATENCY: 214.8 cycles
cpu3_L1D COHERENCE INVALIDATIONS:          0
cpu3_L1D COHERENCE WRITE-HIT OTHER-SHARER EVENTS:          0
cpu3->cpu3_ITLB TOTAL        ACCESS:   79197132 HIT:   79197100 MISS:         32 MSHR_MERGE:         14
cpu3->cpu3_ITLB LOAD         ACCESS:   79197132 HIT:   79197100 MISS:         32 MSHR_MERGE:         14
cpu3->cpu3_ITLB RFO          ACCESS:          0 HIT:          0 MISS:          0 MSHR_MERGE:          0
cpu3->cpu3_ITLB PREFETCH     ACCESS:          0 HIT:          0 MISS:          0 MSHR_MERGE:          0
cpu3->cpu3_ITLB WRITE        ACCESS:          0 HIT:          0 MISS:          0 MSHR_MERGE:          0
cpu3->cpu3_ITLB TRANSLATION  ACCESS:          0 HIT:          0 MISS:          0 MSHR_MERGE:          0
cpu3->cpu3_ITLB PREFETCH REQUESTED:          0 ISSUED:          0 USEFUL:          0 USELESS:          0
cpu3->cpu3_ITLB AVERAGE MISS LATENCY: 405.4 cycles
cpu3_ITLB COHERENCE INVALIDATIONS:          0
cpu3_ITLB COHERENCE WRITE-HIT OTHER-SHARER EVENTS:          0
cpu3_DTLB COHERENCE INVALIDATIONS:          0
cpu3_DTLB COHERENCE WRITE-HIT OTHER-SHARER EVENTS:          0
cpu2->cpu2_STLB TOTAL        ACCESS:         17 HIT:          7 MISS:         10 MSHR_MERGE:          0
cpu2->cpu2_STLB LOAD         ACCESS:         17 HIT:          7 MISS:         10 MSHR_MERGE:          0
cpu2->cpu2_STLB RFO          ACCESS:          0 HIT:          0 MISS:          0 MSHR_MERGE:          0
cpu2->cpu2_STLB PREFETCH     ACCESS:          0 HIT:          0 MISS:          0 MSHR_MERGE:          0
cpu2->cpu2_STLB WRITE        ACCESS:          0 HIT:          0 MISS:          0 MSHR_MERGE:          0
cpu2->cpu2_STLB TRANSLATION  ACCESS:          0 HIT:          0 MISS:          0 MSHR_MERGE:          0
cpu2->cpu2_STLB PREFETCH REQUESTED:          0 ISSUED:          0 USEFUL:          0 USELESS:          0
cpu2->cpu2_STLB AVERAGE MISS LATENCY: 600.9 cycles
cpu2_STLB COHERENCE INVALIDATIONS:          0
cpu2_STLB COHERENCE WRITE-HIT OTHER-SHARER EVENTS:          0
cpu2->cpu2_L2C TOTAL        ACCESS:         58 HIT:          4 MISS:         54 MSHR_MERGE:          0
cpu2->cpu2_L2C LOAD         ACCESS:         38 HIT:          4 MISS:         34 MSHR_MERGE:          0
cpu2->cpu2_L2C RFO          ACCESS:          0 HIT:          0 MISS:          0 MSHR_MERGE:          0
cpu2->cpu2_L2C PREFETCH     ACCESS:          0 HIT:          0 MISS:          0 MSHR_MERGE:          0
cpu2->cpu2_L2C WRITE        ACCESS:          0 HIT:          0 MISS:          0 MSHR_MERGE:          0
cpu2->cpu2_L2C TRANSLATION  ACCESS:         20 HIT:          0 MISS:         20 MSHR_MERGE:          0
cpu2->cpu2_L2C PREFETCH REQUESTED:          0 ISSUED:          0 USEFUL:          0 USELESS:          0
cpu2->cpu2_L2C AVERAGE MISS LATENCY: 198.9 cycles
cpu2_L2C COHERENCE INVALIDATIONS:          0
cpu2_L2C COHERENCE WRITE-HIT OTHER-SHARER EVENTS:          0
cpu2->cpu2_L1I TOTAL        ACCESS:  103241057 HIT:  103241005 MISS:         52 MSHR_MERGE:         14
cpu2->cpu2_L1I LOAD         ACCESS:  103241057 HIT:  103241005 MISS:         52 MSHR_MERGE:         14
cpu2->cpu2_L1I RFO          ACCESS:          0 HIT:          0 MISS:          0 MSHR_MERGE:          0
cpu2->cpu2_L1I PREFETCH     ACCESS:          0 HIT:          0 MISS:          0 MSHR_MERGE:          0
cpu2->cpu2_L1I WRITE        ACCESS:          0 HIT:          0 MISS:          0 MSHR_MERGE:          0
cpu2->cpu2_L1I TRANSLATION  ACCESS:          0 HIT:          0 MISS:          0 MSHR_MERGE:          0
cpu2->cpu2_L1I PREFETCH REQUESTED:          0 ISSUED:          0 USEFUL:          0 USELESS:          0
cpu2->cpu2_L1I AVERAGE MISS LATENCY: 192.4 cycles
cpu2_L1I COHERENCE INVALIDATIONS:          0
cpu2_L1I COHERENCE WRITE-HIT OTHER-SHARER EVENTS:          0
cpu2->cpu2_L1D TOTAL        ACCESS:         20 HIT:          0 MISS:         20 MSHR_MERGE:          0
cpu2->cpu2_L1D LOAD         ACCESS:          0 HIT:          0 MISS:          0 MSHR_MERGE:          0
cpu2->cpu2_L1D RFO          ACCESS:          0 HIT:          0 MISS:          0 MSHR_MERGE:          0
cpu2->cpu2_L1D PREFETCH     ACCESS:          0 HIT:          0 MISS:          0 MSHR_MERGE:          0
cpu2->cpu2_L1D WRITE        ACCESS:          0 HIT:          0 MISS:          0 MSHR_MERGE:          0
cpu2->cpu2_L1D TRANSLATION  ACCESS:         20 HIT:          0 MISS:         20 MSHR_MERGE:          0
cpu2->cpu2_L1D PREFETCH REQUESTED:          0 ISSUED:          0 USEFUL:          0 USELESS:          0
cpu2->cpu2_L1D AVERAGE MISS LATENCY: 194.4 cycles
cpu2_L1D COHERENCE INVALIDATIONS:          0
cpu2_L1D COHERENCE WRITE-HIT OTHER-SHARER EVENTS:          0
cpu2->cpu2_ITLB TOTAL        ACCESS:   79659134 HIT:   79659105 MISS:         29 MSHR_MERGE:         12
cpu2->cpu2_ITLB LOAD         ACCESS:   79659134 HIT:   79659105 MISS:         29 MSHR_MERGE:         12
cpu2->cpu2_ITLB RFO          ACCESS:          0 HIT:          0 MISS:          0 MSHR_MERGE:          0
cpu2->cpu2_ITLB PREFETCH     ACCESS:          0 HIT:          0 MISS:          0 MSHR_MERGE:          0
cpu2->cpu2_ITLB WRITE        ACCESS:          0 HIT:          0 MISS:          0 MSHR_MERGE:          0
cpu2->cpu2_ITLB TRANSLATION  ACCESS:          0 HIT:          0 MISS:          0 MSHR_MERGE:          0
cpu2->cpu2_ITLB PREFETCH REQUESTED:          0 ISSUED:          0 USEFUL:          0 USELESS:          0
cpu2->cpu2_ITLB AVERAGE MISS LATENCY: 358.1 cycles
cpu2_ITLB COHERENCE INVALIDATIONS:          0
cpu2_ITLB COHERENCE WRITE-HIT OTHER-SHARER EVENTS:          0
cpu2_DTLB COHERENCE INVALIDATIONS:          0
cpu2_DTLB COHERENCE WRITE-HIT OTHER-SHARER EVENTS:          0
cpu1->cpu1_STLB TOTAL        ACCESS:    1134894 HIT:    1134726 MISS:        168 MSHR_MERGE:          0
cpu1->cpu1_STLB LOAD         ACCESS:    1134894 HIT:    1134726 MISS:        168 MSHR_MERGE:          0
cpu1->cpu1_STLB RFO          ACCESS:          0 HIT:          0 MISS:          0 MSHR_MERGE:          0
cpu1->cpu1_STLB PREFETCH     ACCESS:          0 HIT:          0 MISS:          0 MSHR_MERGE:          0
cpu1->cpu1_STLB WRITE        ACCESS:          0 HIT:          0 MISS:          0 MSHR_MERGE:          0
cpu1->cpu1_STLB TRANSLATION  ACCESS:          0 HIT:          0 MISS:          0 MSHR_MERGE:          0
cpu1->cpu1_STLB PREFETCH REQUESTED:          0 ISSUED:          0 USEFUL:          0 USELESS:          0
cpu1->cpu1_STLB AVERAGE MISS LATENCY: 650 cycles
cpu1_STLB COHERENCE INVALIDATIONS:          0
cpu1_STLB COHERENCE WRITE-HIT OTHER-SHARER EVENTS:          0
cpu1->cpu1_L2C TOTAL        ACCESS:    3384592 HIT:    3094612 MISS:     289980 MSHR_MERGE:          0
cpu1->cpu1_L2C LOAD         ACCESS:    3384395 HIT:    3094612 MISS:     289783 MSHR_MERGE:          0
cpu1->cpu1_L2C RFO          ACCESS:          0 HIT:          0 MISS:          0 MSHR_MERGE:          0
cpu1->cpu1_L2C PREFETCH     ACCESS:          0 HIT:          0 MISS:          0 MSHR_MERGE:          0
cpu1->cpu1_L2C WRITE        ACCESS:          0 HIT:          0 MISS:          0 MSHR_MERGE:          0
cpu1->cpu1_L2C TRANSLATION  ACCESS:        197 HIT:          0 MISS:        197 MSHR_MERGE:          0
cpu1->cpu1_L2C PREFETCH REQUESTED:          0 ISSUED:          0 USEFUL:          0 USELESS:          0
cpu1->cpu1_L2C AVERAGE MISS LATENCY: 117.4 cycles
cpu1_L2C COHERENCE INVALIDATIONS:          0
cpu1_L2C COHERENCE WRITE-HIT OTHER-SHARER EVENTS:          0
cpu1->cpu1_L1I TOTAL        ACCESS:   63891101 HIT:   60449906 MISS:    3441195 MSHR_MERGE:      56800
cpu1->cpu1_L1I LOAD         ACCESS:   63891101 HIT:   60449906 MISS:    3441195 MSHR_MERGE:      56800
cpu1->cpu1_L1I RFO          ACCESS:          0 HIT:          0 MISS:          0 MSHR_MERGE:          0
cpu1->cpu1_L1I PREFETCH     ACCESS:          0 HIT:          0 MISS:          0 MSHR_MERGE:          0
cpu1->cpu1_L1I WRITE        ACCESS:          0 HIT:          0 MISS:          0 MSHR_MERGE:          0
cpu1->cpu1_L1I TRANSLATION  ACCESS:          0 HIT:          0 MISS:          0 MSHR_MERGE:          0
cpu1->cpu1_L1I PREFETCH REQUESTED:          0 ISSUED:          0 USEFUL:          0 USELESS:          0
cpu1->cpu1_L1I AVERAGE MISS LATENCY: 17.31 cycles
cpu1_L1I COHERENCE INVALIDATIONS:          0
cpu1_L1I COHERENCE WRITE-HIT OTHER-SHARER EVENTS:          0
cpu1->cpu1_L1D TOTAL        ACCESS:        339 HIT:        142 MISS:        197 MSHR_MERGE:          0
cpu1->cpu1_L1D LOAD         ACCESS:          0 HIT:          0 MISS:          0 MSHR_MERGE:          0
cpu1->cpu1_L1D RFO          ACCESS:          0 HIT:          0 MISS:          0 MSHR_MERGE:          0
cpu1->cpu1_L1D PREFETCH     ACCESS:          0 HIT:          0 MISS:          0 MSHR_MERGE:          0
cpu1->cpu1_L1D WRITE        ACCESS:          0 HIT:          0 MISS:          0 MSHR_MERGE:          0
cpu1->cpu1_L1D TRANSLATION  ACCESS:        339 HIT:        142 MISS:        197 MSHR_MERGE:          0
cpu1->cpu1_L1D PREFETCH REQUESTED:          0 ISSUED:          0 USEFUL:          0 USELESS:          0
cpu1->cpu1_L1D AVERAGE MISS LATENCY: 206.7 cycles
cpu1_L1D COHERENCE INVALIDATIONS:          0
cpu1_L1D COHERENCE WRITE-HIT OTHER-SHARER EVENTS:          0
cpu1->cpu1_ITLB TOTAL        ACCESS:   61409764 HIT:   60213859 MISS:    1195905 MSHR_MERGE:      61011
cpu1->cpu1_ITLB LOAD         ACCESS:   61409764 HIT:   60213859 MISS:    1195905 MSHR_MERGE:      61011
cpu1->cpu1_ITLB RFO          ACCESS:          0 HIT:          0 MISS:          0 MSHR_MERGE:          0
cpu1->cpu1_ITLB PREFETCH     ACCESS:          0 HIT:          0 MISS:          0 MSHR_MERGE:          0
cpu1->cpu1_ITLB WRITE        ACCESS:          0 HIT:          0 MISS:          0 MSHR_MERGE:          0
cpu1->cpu1_ITLB TRANSLATION  ACCESS:          0 HIT:          0 MISS:          0 MSHR_MERGE:          0
cpu1->cpu1_ITLB PREFETCH REQUESTED:          0 ISSUED:          0 USEFUL:          0 USELESS:          0
cpu1->cpu1_ITLB AVERAGE MISS LATENCY: 4.096 cycles
cpu1_ITLB COHERENCE INVALIDATIONS:          0
cpu1_ITLB COHERENCE WRITE-HIT OTHER-SHARER EVENTS:          0
cpu1_DTLB COHERENCE INVALIDATIONS:          0
cpu1_DTLB COHERENCE WRITE-HIT OTHER-SHARER EVENTS:          0
cpu0->cpu0_STLB TOTAL        ACCESS:    3021053 HIT:    3008123 MISS:      12930 MSHR_MERGE:          0
cpu0->cpu0_STLB LOAD         ACCESS:    3021053 HIT:    3008123 MISS:      12930 MSHR_MERGE:          0
cpu0->cpu0_STLB RFO          ACCESS:          0 HIT:          0 MISS:          0 MSHR_MERGE:          0
cpu0->cpu0_STLB PREFETCH     ACCESS:          0 HIT:          0 MISS:          0 MSHR_MERGE:          0
cpu0->cpu0_STLB WRITE        ACCESS:          0 HIT:          0 MISS:          0 MSHR_MERGE:          0
cpu0->cpu0_STLB TRANSLATION  ACCESS:          0 HIT:          0 MISS:          0 MSHR_MERGE:          0
cpu0->cpu0_STLB PREFETCH REQUESTED:          0 ISSUED:          0 USEFUL:          0 USELESS:          0
cpu0->cpu0_STLB AVERAGE MISS LATENCY: 272 cycles
cpu0_STLB COHERENCE INVALIDATIONS:          0
cpu0_STLB COHERENCE WRITE-HIT OTHER-SHARER EVENTS:          0
cpu0->cpu0_L2C TOTAL        ACCESS:    4709786 HIT:    4299294 MISS:     410492 MSHR_MERGE:          0
cpu0->cpu0_L2C LOAD         ACCESS:    3759127 HIT:    3414549 MISS:     344578 MSHR_MERGE:          0
cpu0->cpu0_L2C RFO          ACCESS:     343356 HIT:     291462 MISS:      51894 MSHR_MERGE:          0
cpu0->cpu0_L2C PREFETCH     ACCESS:          0 HIT:          0 MISS:          0 MSHR_MERGE:          0
cpu0->cpu0_L2C WRITE        ACCESS:     579115 HIT:     578833 MISS:        282 MSHR_MERGE:          0
cpu0->cpu0_L2C TRANSLATION  ACCESS:      28188 HIT:      14450 MISS:      13738 MSHR_MERGE:          0
cpu0->cpu0_L2C PREFETCH REQUESTED:          0 ISSUED:          0 USEFUL:          0 USELESS:          0
cpu0->cpu0_L2C AVERAGE MISS LATENCY: 134 cycles
cpu0_L2C COHERENCE INVALIDATIONS:          0
cpu0_L2C COHERENCE WRITE-HIT OTHER-SHARER EVENTS:          0
cpu0->cpu0_L1I TOTAL        ACCESS:   25249460 HIT:   25249441 MISS:         19 MSHR_MERGE:          6
cpu0->cpu0_L1I LOAD         ACCESS:   25249460 HIT:   25249441 MISS:         19 MSHR_MERGE:          6
cpu0->cpu0_L1I RFO          ACCESS:          0 HIT:          0 MISS:          0 MSHR_MERGE:          0
cpu0->cpu0_L1I PREFETCH     ACCESS:          0 HIT:          0 MISS:          0 MSHR_MERGE:          0
cpu0->cpu0_L1I WRITE        ACCESS:          0 HIT:          0 MISS:          0 MSHR_MERGE:          0
cpu0->cpu0_L1I TRANSLATION  ACCESS:          0 HIT:          0 MISS:          0 MSHR_MERGE:          0
cpu0->cpu0_L1I PREFETCH REQUESTED:          0 ISSUED:          0 USEFUL:          0 USELESS:          0
cpu0->cpu0_L1I AVERAGE MISS LATENCY: 211.7 cycles
cpu0_L1I COHERENCE INVALIDATIONS:          0
cpu0_L1I COHERENCE WRITE-HIT OTHER-SHARER EVENTS:          0
cpu0->cpu0_L1D TOTAL        ACCESS:   63851471 HIT:   59644516 MISS:    4206955 MSHR_MERGE:      75811
cpu0->cpu0_L1D LOAD         ACCESS:   16917802 HIT:   13149269 MISS:    3768533 MSHR_MERGE:       9335
cpu0->cpu0_L1D RFO          ACCESS:          0 HIT:          0 MISS:          0 MSHR_MERGE:          0
cpu0->cpu0_L1D PREFETCH     ACCESS:          0 HIT:          0 MISS:          0 MSHR_MERGE:          0
cpu0->cpu0_L1D WRITE        ACCESS:   46902331 HIT:   46492105 MISS:     410226 MSHR_MERGE:      66468
cpu0->cpu0_L1D TRANSLATION  ACCESS:      31338 HIT:       3142 MISS:      28196 MSHR_MERGE:          8
cpu0->cpu0_L1D PREFETCH REQUESTED:          0 ISSUED:          0 USEFUL:          0 USELESS:          0
cpu0->cpu0_L1D AVERAGE MISS LATENCY: 20.62 cycles
cpu0_L1D COHERENCE INVALIDATIONS:          0
cpu0_L1D COHERENCE WRITE-HIT OTHER-SHARER EVENTS:          0
cpu0->cpu0_ITLB TOTAL        ACCESS:   22750520 HIT:   22750520 MISS:          0 MSHR_MERGE:          0
cpu0->cpu0_ITLB LOAD         ACCESS:   22750520 HIT:   22750520 MISS:          0 MSHR_MERGE:          0
cpu0->cpu0_ITLB RFO          ACCESS:          0 HIT:          0 MISS:          0 MSHR_MERGE:          0
cpu0->cpu0_ITLB PREFETCH     ACCESS:          0 HIT:          0 MISS:          0 MSHR_MERGE:          0
cpu0->cpu0_ITLB WRITE        ACCESS:          0 HIT:          0 MISS:          0 MSHR_MERGE:          0
cpu0->cpu0_ITLB TRANSLATION  ACCESS:          0 HIT:          0 MISS:          0 MSHR_MERGE:          0
cpu0->cpu0_ITLB PREFETCH REQUESTED:          0 ISSUED:          0 USEFUL:          0 USELESS:          0
cpu0->cpu0_ITLB AVERAGE MISS LATENCY: - cycles
cpu0_ITLB COHERENCE INVALIDATIONS:          0
cpu0_ITLB COHERENCE WRITE-HIT OTHER-SHARER EVENTS:          0
cpu0->cpu0_DTLB TOTAL        ACCESS:   62012836 HIT:   58820231 MISS:    3192605 MSHR_MERGE:     171552
cpu0->cpu0_DTLB LOAD         ACCESS:   62012836 HIT:   58820231 MISS:    3192605 MSHR_MERGE:     171552
cpu0->cpu0_DTLB RFO          ACCESS:          0 HIT:          0 MISS:          0 MSHR_MERGE:          0
cpu0->cpu0_DTLB PREFETCH     ACCESS:          0 HIT:          0 MISS:          0 MSHR_MERGE:          0
cpu0->cpu0_DTLB WRITE        ACCESS:          0 HIT:          0 MISS:          0 MSHR_MERGE:          0
cpu0->cpu0_DTLB TRANSLATION  ACCESS:          0 HIT:          0 MISS:          0 MSHR_MERGE:          0
cpu0->cpu0_DTLB PREFETCH REQUESTED:          0 ISSUED:          0 USEFUL:          0 USELESS:          0
cpu0->cpu0_DTLB AVERAGE MISS LATENCY: 5.169 cycles
cpu0_DTLB COHERENCE INVALIDATIONS:          0
cpu0_DTLB COHERENCE WRITE-HIT OTHER-SHARER EVENTS:          0
cpu0->LLC TOTAL        ACCESS:     514965 HIT:     211026 MISS:     303939 MSHR_MERGE:          1
cpu0->LLC LOAD         ACCESS:     344578 HIT:     133692 MISS:     210886 MSHR_MERGE:          1
cpu0->LLC RFO          ACCESS:      51894 HIT:      24487 MISS:      27407 MSHR_MERGE:          0
cpu0->LLC PREFETCH     ACCESS:          0 HIT:          0 MISS:          0 MSHR_MERGE:          0
cpu0->LLC WRITE        ACCESS:     104755 HIT:      52633 MISS:      52122 MSHR_MERGE:          0
cpu0->LLC TRANSLATION  ACCESS:      13738 HIT:        214 MISS:      13524 MSHR_MERGE:          0
cpu0->LLC PREFETCH REQUESTED:          0 ISSUED:          0 USEFUL:          0 USELESS:          0
cpu0->LLC AVERAGE MISS LATENCY: 258.7 cycles
cpu1->LLC TOTAL        ACCESS:     289980 HIT:     124912 MISS:     165068 MSHR_MERGE:          0
cpu1->LLC LOAD         ACCESS:     289783 HIT:     124912 MISS:     164871 MSHR_MERGE:          0
cpu1->LLC RFO          ACCESS:          0 HIT:          0 MISS:          0 MSHR_MERGE:          0
cpu1->LLC PREFETCH     ACCESS:          0 HIT:          0 MISS:          0 MSHR_MERGE:          0
cpu1->LLC WRITE        ACCESS:          0 HIT:          0 MISS:          0 MSHR_MERGE:          0
cpu1->LLC TRANSLATION  ACCESS:        197 HIT:          0 MISS:        197 MSHR_MERGE:          0
cpu1->LLC PREFETCH REQUESTED:          0 ISSUED:          0 USEFUL:          0 USELESS:          0
cpu1->LLC AVERAGE MISS LATENCY: 476.3 cycles
cpu2->LLC TOTAL        ACCESS:         54 HIT:          0 MISS:         54 MSHR_MERGE:          0
cpu2->LLC LOAD         ACCESS:         34 HIT:          0 MISS:         34 MSHR_MERGE:          0
cpu2->LLC RFO          ACCESS:          0 HIT:          0 MISS:          0 MSHR_MERGE:          0
cpu2->LLC PREFETCH     ACCESS:          0 HIT:          0 MISS:          0 MSHR_MERGE:          0
cpu2->LLC WRITE        ACCESS:          0 HIT:          0 MISS:          0 MSHR_MERGE:          0
cpu2->LLC TRANSLATION  ACCESS:         20 HIT:          0 MISS:         20 MSHR_MERGE:          0
cpu2->LLC PREFETCH REQUESTED:          0 ISSUED:          0 USEFUL:          0 USELESS:          0
cpu2->LLC AVERAGE MISS LATENCY: 1.456e+06 cycles
cpu3->LLC TOTAL        ACCESS:         54 HIT:          0 MISS:         54 MSHR_MERGE:          0
cpu3->LLC LOAD         ACCESS:         34 HIT:          0 MISS:         34 MSHR_MERGE:          0
cpu3->LLC RFO          ACCESS:          0 HIT:          0 MISS:          0 MSHR_MERGE:          0
cpu3->LLC PREFETCH     ACCESS:          0 HIT:          0 MISS:          0 MSHR_MERGE:          0
cpu3->LLC WRITE        ACCESS:          0 HIT:          0 MISS:          0 MSHR_MERGE:          0
cpu3->LLC TRANSLATION  ACCESS:         20 HIT:          0 MISS:         20 MSHR_MERGE:          0
cpu3->LLC PREFETCH REQUESTED:          0 ISSUED:          0 USEFUL:          0 USELESS:          0
cpu3->LLC AVERAGE MISS LATENCY: 1.456e+06 cycles
LLC COHERENCE INVALIDATIONS:      29511
LLC COHERENCE WRITE-HIT OTHER-SHARER EVENTS:      29511

DRAM Statistics

Channel 0 RQ ROW_BUFFER_HIT:       1760
  ROW_BUFFER_MISS:     415158
  AVG DBUS CONGESTED CYCLE: 13.81
Channel 0 WQ ROW_BUFFER_HIT:      10293
  ROW_BUFFER_MISS:      43371
  FULL:          0
Channel 0 REFRESHES ISSUED:      13388

VMEM ALIASED FILLS (cross-CPU shared-page hits): 3507
