[VMEM] WARNING: physical memory size is smaller than virtual memory size.

*** ChampSim Multicore Out-of-Order Simulator ***
Warmup Instructions: 50000000
Simulation Instructions: 100000000
Number of CPUs: 4
Page size: 4096

Off-chip DRAM Size: 16 GiB Channels: 1 Width: 64-bit Data Rate: 3205 MT/s
Heartbeat CPU 2 instructions: 10000001 cycles: 2509382 heartbeat IPC: 3.985 cumulative IPC: 3.985 (Simulation time: 00 hr 04 min 05 sec)
Heartbeat CPU 3 instructions: 10000002 cycles: 2509495 heartbeat IPC: 3.985 cumulative IPC: 3.985 (Simulation time: 00 hr 04 min 05 sec)
Heartbeat CPU 0 instructions: 10000001 cycles: 3015037 heartbeat IPC: 3.317 cumulative IPC: 3.317 (Simulation time: 00 hr 04 min 51 sec)
Heartbeat CPU 1 instructions: 10000002 cycles: 4159950 heartbeat IPC: 2.404 cumulative IPC: 2.404 (Simulation time: 00 hr 06 min 31 sec)
Heartbeat CPU 2 instructions: 20000001 cycles: 5009382 heartbeat IPC: 4 cumulative IPC: 3.993 (Simulation time: 00 hr 07 min 44 sec)
Heartbeat CPU 3 instructions: 20000002 cycles: 5009495 heartbeat IPC: 4 cumulative IPC: 3.992 (Simulation time: 00 hr 07 min 44 sec)
Heartbeat CPU 2 instructions: 30000001 cycles: 7509382 heartbeat IPC: 4 cumulative IPC: 3.995 (Simulation time: 00 hr 11 min 19 sec)
Heartbeat CPU 3 instructions: 30000002 cycles: 7509495 heartbeat IPC: 4 cumulative IPC: 3.995 (Simulation time: 00 hr 11 min 19 sec)
Heartbeat CPU 1 instructions: 20000004 cycles: 7837260 heartbeat IPC: 2.719 cumulative IPC: 2.552 (Simulation time: 00 hr 11 min 48 sec)
Heartbeat CPU 2 instructions: 40000001 cycles: 10009382 heartbeat IPC: 4 cumulative IPC: 3.996 (Simulation time: 00 hr 14 min 53 sec)
Heartbeat CPU 3 instructions: 40000002 cycles: 10009495 heartbeat IPC: 4 cumulative IPC: 3.996 (Simulation time: 00 hr 14 min 53 sec)
Heartbeat CPU 1 instructions: 30000005 cycles: 11537097 heartbeat IPC: 2.703 cumulative IPC: 2.6 (Simulation time: 00 hr 16 min 58 sec)
Heartbeat CPU 2 instructions: 50000001 cycles: 12509382 heartbeat IPC: 4 cumulative IPC: 3.997 (Simulation time: 00 hr 18 min 03 sec)
Warmup finished CPU 2 instructions: 50000001 cycles: 12509382 cumulative IPC: 3.997 (Simulation time: 00 hr 18 min 03 sec)
Heartbeat CPU 3 instructions: 50000002 cycles: 12509495 heartbeat IPC: 4 cumulative IPC: 3.997 (Simulation time: 00 hr 18 min 03 sec)
Warmup finished CPU 3 instructions: 50000002 cycles: 12509495 cumulative IPC: 3.997 (Simulation time: 00 hr 18 min 03 sec)
Heartbeat CPU 0 instructions: 20000005 cycles: 14018133 heartbeat IPC: 0.9088 cumulative IPC: 1.427 (Simulation time: 00 hr 20 min 03 sec)
Heartbeat CPU 2 instructions: 60000001 cycles: 15009382 heartbeat IPC: 4 cumulative IPC: 3.997 (Simulation time: 00 hr 21 min 54 sec)
Heartbeat CPU 3 instructions: 60000002 cycles: 15009495 heartbeat IPC: 4 cumulative IPC: 3.997 (Simulation time: 00 hr 21 min 54 sec)
Heartbeat CPU 1 instructions: 40000006 cycles: 15234269 heartbeat IPC: 2.705 cumulative IPC: 2.626 (Simulation time: 00 hr 22 min 20 sec)
Heartbeat CPU 2 instructions: 70000001 cycles: 17509382 heartbeat IPC: 4 cumulative IPC: 3.998 (Simulation time: 00 hr 25 min 29 sec)
Heartbeat CPU 3 instructions: 70000002 cycles: 17509495 heartbeat IPC: 4 cumulative IPC: 3.998 (Simulation time: 00 hr 25 min 29 sec)
Warmup finished CPU 1 instructions: 50000003 cycles: 18953167 cumulative IPC: 2.638 (Simulation time: 00 hr 27 min 32 sec)
Heartbeat CPU 1 instructions: 50000007 cycles: 18953168 heartbeat IPC: 2.689 cumulative IPC: 2.638 (Simulation time: 00 hr 27 min 32 sec)
Heartbeat CPU 2 instructions: 80000001 cycles: 20009382 heartbeat IPC: 4 cumulative IPC: 3.998 (Simulation time: 00 hr 28 min 58 sec)
Heartbeat CPU 3 instructions: 80000002 cycles: 20009495 heartbeat IPC: 4 cumulative IPC: 3.998 (Simulation time: 00 hr 28 min 58 sec)
Heartbeat CPU 2 instructions: 90000001 cycles: 22509382 heartbeat IPC: 4 cumulative IPC: 3.998 (Simulation time: 00 hr 32 min 15 sec)
Heartbeat CPU 3 instructions: 90000002 cycles: 22509495 heartbeat IPC: 4 cumulative IPC: 3.998 (Simulation time: 00 hr 32 min 15 sec)
Heartbeat CPU 1 instructions: 60000010 cycles: 22576507 heartbeat IPC: 2.76 cumulative IPC: 2.658 (Simulation time: 00 hr 32 min 20 sec)
Heartbeat CPU 2 instructions: 100000001 cycles: 25009382 heartbeat IPC: 4 cumulative IPC: 3.998 (Simulation time: 00 hr 35 min 43 sec)
Heartbeat CPU 3 instructions: 100000002 cycles: 25009495 heartbeat IPC: 4 cumulative IPC: 3.998 (Simulation time: 00 hr 35 min 43 sec)
Heartbeat CPU 1 instructions: 70000012 cycles: 26272519 heartbeat IPC: 2.706 cumulative IPC: 2.664 (Simulation time: 00 hr 37 min 28 sec)
Heartbeat CPU 2 instructions: 110000001 cycles: 27509382 heartbeat IPC: 4 cumulative IPC: 3.999 (Simulation time: 00 hr 39 min 11 sec)
Heartbeat CPU 3 instructions: 110000002 cycles: 27509495 heartbeat IPC: 4 cumulative IPC: 3.999 (Simulation time: 00 hr 39 min 11 sec)
Heartbeat CPU 0 instructions: 30000005 cycles: 29199606 heartbeat IPC: 0.6587 cumulative IPC: 1.027 (Simulation time: 00 hr 41 min 29 sec)
Heartbeat CPU 1 instructions: 80000012 cycles: 29962033 heartbeat IPC: 2.71 cumulative IPC: 2.67 (Simulation time: 00 hr 42 min 21 sec)
Heartbeat CPU 2 instructions: 120000001 cycles: 30009382 heartbeat IPC: 4 cumulative IPC: 3.999 (Simulation time: 00 hr 42 min 24 sec)
Heartbeat CPU 3 instructions: 120000002 cycles: 30009495 heartbeat IPC: 4 cumulative IPC: 3.999 (Simulation time: 00 hr 42 min 24 sec)
Heartbeat CPU 2 instructions: 130000001 cycles: 32509382 heartbeat IPC: 4 cumulative IPC: 3.999 (Simulation time: 00 hr 45 min 42 sec)
Heartbeat CPU 3 instructions: 130000002 cycles: 32509495 heartbeat IPC: 4 cumulative IPC: 3.999 (Simulation time: 00 hr 45 min 42 sec)
Heartbeat CPU 1 instructions: 90000015 cycles: 33625682 heartbeat IPC: 2.73 cumulative IPC: 2.677 (Simulation time: 00 hr 47 min 05 sec)
Heartbeat CPU 2 instructions: 140000001 cycles: 35009382 heartbeat IPC: 4 cumulative IPC: 3.999 (Simulation time: 00 hr 48 min 41 sec)
Heartbeat CPU 3 instructions: 140000002 cycles: 35009495 heartbeat IPC: 4 cumulative IPC: 3.999 (Simulation time: 00 hr 48 min 41 sec)
Heartbeat CPU 1 instructions: 100000016 cycles: 37301238 heartbeat IPC: 2.721 cumulative IPC: 2.681 (Simulation time: 00 hr 51 min 23 sec)
Heartbeat CPU 2 instructions: 150000001 cycles: 37509382 heartbeat IPC: 4 cumulative IPC: 3.999 (Simulation time: 00 hr 51 min 38 sec)
Heartbeat CPU 3 instructions: 150000002 cycles: 37509495 heartbeat IPC: 4 cumulative IPC: 3.999 (Simulation time: 00 hr 51 min 38 sec)
Heartbeat CPU 2 instructions: 160000001 cycles: 40009382 heartbeat IPC: 4 cumulative IPC: 3.999 (Simulation time: 00 hr 54 min 51 sec)
Heartbeat CPU 3 instructions: 160000002 cycles: 40009495 heartbeat IPC: 4 cumulative IPC: 3.999 (Simulation time: 00 hr 54 min 51 sec)
Heartbeat CPU 1 instructions: 110000016 cycles: 40973699 heartbeat IPC: 2.723 cumulative IPC: 2.685 (Simulation time: 00 hr 56 min 11 sec)
Heartbeat CPU 2 instructions: 170000001 cycles: 42509382 heartbeat IPC: 4 cumulative IPC: 3.999 (Simulation time: 00 hr 58 min 19 sec)
Heartbeat CPU 3 instructions: 170000002 cycles: 42509495 heartbeat IPC: 4 cumulative IPC: 3.999 (Simulation time: 00 hr 58 min 19 sec)
Heartbeat CPU 0 instructions: 40000005 cycles: 44687549 heartbeat IPC: 0.6457 cumulative IPC: 0.8951 (Simulation time: 01 hr 01 min 08 sec)
Heartbeat CPU 1 instructions: 120000018 cycles: 44704267 heartbeat IPC: 2.681 cumulative IPC: 2.684 (Simulation time: 01 hr 01 min 09 sec)
Heartbeat CPU 2 instructions: 180000001 cycles: 45009382 heartbeat IPC: 4 cumulative IPC: 3.999 (Simulation time: 01 hr 01 min 34 sec)
Heartbeat CPU 3 instructions: 180000002 cycles: 45009495 heartbeat IPC: 4 cumulative IPC: 3.999 (Simulation time: 01 hr 01 min 34 sec)
Heartbeat CPU 2 instructions: 190000001 cycles: 47509382 heartbeat IPC: 4 cumulative IPC: 3.999 (Simulation time: 01 hr 05 min 17 sec)
Heartbeat CPU 3 instructions: 190000002 cycles: 47509495 heartbeat IPC: 4 cumulative IPC: 3.999 (Simulation time: 01 hr 05 min 17 sec)
Heartbeat CPU 1 instructions: 130000020 cycles: 48397854 heartbeat IPC: 2.707 cumulative IPC: 2.686 (Simulation time: 01 hr 06 min 40 sec)
Heartbeat CPU 2 instructions: 200000001 cycles: 50009382 heartbeat IPC: 4 cumulative IPC: 3.999 (Simulation time: 01 hr 09 min 16 sec)
Heartbeat CPU 3 instructions: 200000002 cycles: 50009495 heartbeat IPC: 4 cumulative IPC: 3.999 (Simulation time: 01 hr 09 min 16 sec)
Heartbeat CPU 1 instructions: 140000020 cycles: 51970171 heartbeat IPC: 2.799 cumulative IPC: 2.694 (Simulation time: 01 hr 11 min 56 sec)
Heartbeat CPU 2 instructions: 210000001 cycles: 52509382 heartbeat IPC: 4 cumulative IPC: 3.999 (Simulation time: 01 hr 12 min 57 sec)
Heartbeat CPU 3 instructions: 210000002 cycles: 52509495 heartbeat IPC: 4 cumulative IPC: 3.999 (Simulation time: 01 hr 12 min 57 sec)
Heartbeat CPU 2 instructions: 220000001 cycles: 55009382 heartbeat IPC: 4 cumulative IPC: 3.999 (Simulation time: 01 hr 16 min 04 sec)
Heartbeat CPU 3 instructions: 220000002 cycles: 55009495 heartbeat IPC: 4 cumulative IPC: 3.999 (Simulation time: 01 hr 16 min 04 sec)
Heartbeat CPU 1 instructions: 150000023 cycles: 55927962 heartbeat IPC: 2.527 cumulative IPC: 2.682 (Simulation time: 01 hr 17 min 18 sec)
Heartbeat CPU 2 instructions: 230000001 cycles: 57509382 heartbeat IPC: 4 cumulative IPC: 3.999 (Simulation time: 01 hr 19 min 10 sec)
Heartbeat CPU 3 instructions: 230000002 cycles: 57509495 heartbeat IPC: 4 cumulative IPC: 3.999 (Simulation time: 01 hr 19 min 10 sec)
Heartbeat CPU 1 instructions: 160000023 cycles: 59764206 heartbeat IPC: 2.607 cumulative IPC: 2.677 (Simulation time: 01 hr 21 min 46 sec)
Heartbeat CPU 2 instructions: 240000001 cycles: 60009382 heartbeat IPC: 4 cumulative IPC: 3.999 (Simulation time: 01 hr 22 min 03 sec)
Heartbeat CPU 3 instructions: 240000002 cycles: 60009495 heartbeat IPC: 4 cumulative IPC: 3.999 (Simulation time: 01 hr 22 min 03 sec)
Warmup finished CPU 0 instructions: 50000000 cycles: 60384321 cumulative IPC: 0.828 (Simulation time: 01 hr 22 min 29 sec)
Warmup complete CPU 3 instructions: 241499306 cycles: 60384321 cumulative IPC: 3.999 (Simulation time: 01 hr 22 min 29 sec)
Warmup complete CPU 2 instructions: 241499757 cycles: 60384321 cumulative IPC: 3.999 (Simulation time: 01 hr 22 min 29 sec)
Warmup complete CPU 1 instructions: 161695509 cycles: 60384321 cumulative IPC: 2.678 (Simulation time: 01 hr 22 min 29 sec)
Warmup complete CPU 0 instructions: 50000000 cycles: 60384321 cumulative IPC: 0.828 (Simulation time: 01 hr 22 min 29 sec)
Heartbeat CPU 0 instructions: 50000005 cycles: 60384332 heartbeat IPC: 0.6371 cumulative IPC: 0.4545 (Simulation time: 01 hr 22 min 29 sec)
Heartbeat CPU 2 instructions: 250000001 cycles: 62509382 heartbeat IPC: 4 cumulative IPC: 4 (Simulation time: 01 hr 25 min 01 sec)
Heartbeat CPU 3 instructions: 250000002 cycles: 62509495 heartbeat IPC: 4 cumulative IPC: 4 (Simulation time: 01 hr 25 min 01 sec)
Heartbeat CPU 1 instructions: 170000026 cycles: 64605125 heartbeat IPC: 2.066 cumulative IPC: 1.968 (Simulation time: 01 hr 27 min 26 sec)
Heartbeat CPU 2 instructions: 260000001 cycles: 65009382 heartbeat IPC: 4 cumulative IPC: 4 (Simulation time: 01 hr 27 min 54 sec)
Heartbeat CPU 3 instructions: 260000002 cycles: 65009495 heartbeat IPC: 4 cumulative IPC: 4 (Simulation time: 01 hr 27 min 54 sec)
Heartbeat CPU 2 instructions: 270000001 cycles: 67509382 heartbeat IPC: 4 cumulative IPC: 4 (Simulation time: 01 hr 31 min 08 sec)
Heartbeat CPU 3 instructions: 270000002 cycles: 67509495 heartbeat IPC: 4 cumulative IPC: 4 (Simulation time: 01 hr 31 min 08 sec)
Heartbeat CPU 1 instructions: 180000028 cycles: 69513295 heartbeat IPC: 2.037 cumulative IPC: 2.005 (Simulation time: 01 hr 33 min 37 sec)
Heartbeat CPU 2 instructions: 280000001 cycles: 70009382 heartbeat IPC: 4 cumulative IPC: 4 (Simulation time: 01 hr 34 min 14 sec)
Heartbeat CPU 3 instructions: 280000002 cycles: 70009495 heartbeat IPC: 4 cumulative IPC: 4 (Simulation time: 01 hr 34 min 14 sec)
Heartbeat CPU 2 instructions: 290000001 cycles: 72509382 heartbeat IPC: 4 cumulative IPC: 4 (Simulation time: 01 hr 37 min 14 sec)
Heartbeat CPU 3 instructions: 290000002 cycles: 72509495 heartbeat IPC: 4 cumulative IPC: 4 (Simulation time: 01 hr 37 min 14 sec)
Heartbeat CPU 1 instructions: 190000028 cycles: 74238818 heartbeat IPC: 2.116 cumulative IPC: 2.043 (Simulation time: 01 hr 39 min 20 sec)
Heartbeat CPU 2 instructions: 300000001 cycles: 75009382 heartbeat IPC: 4 cumulative IPC: 4 (Simulation time: 01 hr 40 min 16 sec)
Heartbeat CPU 3 instructions: 300000002 cycles: 75009495 heartbeat IPC: 4 cumulative IPC: 4 (Simulation time: 01 hr 40 min 16 sec)
Heartbeat CPU 2 instructions: 310000001 cycles: 77509382 heartbeat IPC: 4 cumulative IPC: 4 (Simulation time: 01 hr 43 min 28 sec)
Heartbeat CPU 3 instructions: 310000002 cycles: 77509495 heartbeat IPC: 4 cumulative IPC: 4 (Simulation time: 01 hr 43 min 28 sec)
Heartbeat CPU 1 instructions: 200000028 cycles: 78864152 heartbeat IPC: 2.162 cumulative IPC: 2.073 (Simulation time: 01 hr 45 min 12 sec)
Heartbeat CPU 0 instructions: 60000009 cycles: 79473559 heartbeat IPC: 0.5239 cumulative IPC: 0.5239 (Simulation time: 01 hr 46 min 00 sec)
Heartbeat CPU 2 instructions: 320000001 cycles: 80009382 heartbeat IPC: 4 cumulative IPC: 4 (Simulation time: 01 hr 46 min 40 sec)
Heartbeat CPU 3 instructions: 320000002 cycles: 80009495 heartbeat IPC: 4 cumulative IPC: 4 (Simulation time: 01 hr 46 min 40 sec)
Heartbeat CPU 2 instructions: 330000001 cycles: 82509382 heartbeat IPC: 4 cumulative IPC: 4 (Simulation time: 01 hr 49 min 46 sec)
Heartbeat CPU 3 instructions: 330000002 cycles: 82509495 heartbeat IPC: 4 cumulative IPC: 4 (Simulation time: 01 hr 49 min 46 sec)
Heartbeat CPU 1 instructions: 210000031 cycles: 83596390 heartbeat IPC: 2.113 cumulative IPC: 2.081 (Simulation time: 01 hr 51 min 01 sec)
Heartbeat CPU 2 instructions: 340000001 cycles: 85009382 heartbeat IPC: 4 cumulative IPC: 4 (Simulation time: 01 hr 52 min 46 sec)
Heartbeat CPU 3 instructions: 340000002 cycles: 85009495 heartbeat IPC: 4 cumulative IPC: 4 (Simulation time: 01 hr 52 min 46 sec)
Simulation finished CPU 3 instructions: 100000000 cycles: 25000000 cumulative IPC: 4 (Simulation time: 01 hr 53 min 15 sec)
Simulation finished CPU 2 instructions: 100000000 cycles: 25000000 cumulative IPC: 4 (Simulation time: 01 hr 53 min 15 sec)
Heartbeat CPU 2 instructions: 350000001 cycles: 87509382 heartbeat IPC: 4 cumulative IPC: 4 (Simulation time: 01 hr 55 min 52 sec)
Heartbeat CPU 3 instructions: 350000002 cycles: 87509495 heartbeat IPC: 4 cumulative IPC: 4 (Simulation time: 01 hr 55 min 52 sec)
Heartbeat CPU 1 instructions: 220000031 cycles: 88538827 heartbeat IPC: 2.023 cumulative IPC: 2.071 (Simulation time: 01 hr 57 min 06 sec)
Heartbeat CPU 2 instructions: 360000001 cycles: 90009382 heartbeat IPC: 4 cumulative IPC: 4 (Simulation time: 01 hr 58 min 58 sec)
Heartbeat CPU 3 instructions: 360000002 cycles: 90009495 heartbeat IPC: 4 cumulative IPC: 4 (Simulation time: 01 hr 58 min 58 sec)
Heartbeat CPU 2 instructions: 370000001 cycles: 92509382 heartbeat IPC: 4 cumulative IPC: 4 (Simulation time: 02 hr 01 min 55 sec)
Heartbeat CPU 3 instructions: 370000002 cycles: 92509495 heartbeat IPC: 4 cumulative IPC: 4 (Simulation time: 02 hr 01 min 55 sec)
Heartbeat CPU 1 instructions: 230000034 cycles: 93398557 heartbeat IPC: 2.058 cumulative IPC: 2.069 (Simulation time: 02 hr 02 min 59 sec)
Heartbeat CPU 2 instructions: 380000001 cycles: 95009382 heartbeat IPC: 4 cumulative IPC: 4 (Simulation time: 02 hr 05 min 01 sec)
Heartbeat CPU 3 instructions: 380000002 cycles: 95009495 heartbeat IPC: 4 cumulative IPC: 4 (Simulation time: 02 hr 05 min 01 sec)
Heartbeat CPU 2 instructions: 390000001 cycles: 97509382 heartbeat IPC: 4 cumulative IPC: 4 (Simulation time: 02 hr 08 min 19 sec)
Heartbeat CPU 3 instructions: 390000002 cycles: 97509495 heartbeat IPC: 4 cumulative IPC: 4 (Simulation time: 02 hr 08 min 19 sec)
Heartbeat CPU 0 instructions: 70000009 cycles: 98109301 heartbeat IPC: 0.5366 cumulative IPC: 0.5302 (Simulation time: 02 hr 09 min 03 sec)
Heartbeat CPU 1 instructions: 240000035 cycles: 98251866 heartbeat IPC: 2.06 cumulative IPC: 2.068 (Simulation time: 02 hr 09 min 12 sec)
Heartbeat CPU 2 instructions: 400000001 cycles: 100009382 heartbeat IPC: 4 cumulative IPC: 4 (Simulation time: 02 hr 11 min 06 sec)
Heartbeat CPU 3 instructions: 400000002 cycles: 100009495 heartbeat IPC: 4 cumulative IPC: 4 (Simulation time: 02 hr 11 min 06 sec)
Heartbeat CPU 2 instructions: 410000001 cycles: 102509382 heartbeat IPC: 4 cumulative IPC: 4 (Simulation time: 02 hr 13 min 49 sec)
Heartbeat CPU 3 instructions: 410000004 cycles: 102509564 heartbeat IPC: 4 cumulative IPC: 4 (Simulation time: 02 hr 13 min 49 sec)
Heartbeat CPU 1 instructions: 250000035 cycles: 103188559 heartbeat IPC: 2.026 cumulative IPC: 2.063 (Simulation time: 02 hr 14 min 33 sec)
Heartbeat CPU 2 instructions: 420000001 cycles: 105009444 heartbeat IPC: 4 cumulative IPC: 4 (Simulation time: 02 hr 16 min 28 sec)
Heartbeat CPU 3 instructions: 420000004 cycles: 105009564 heartbeat IPC: 4 cumulative IPC: 4 (Simulation time: 02 hr 16 min 28 sec)
Heartbeat CPU 2 instructions: 430000001 cycles: 107509444 heartbeat IPC: 4 cumulative IPC: 4 (Simulation time: 02 hr 19 min 09 sec)
Heartbeat CPU 3 instructions: 430000004 cycles: 107509564 heartbeat IPC: 4 cumulative IPC: 4 (Simulation time: 02 hr 19 min 09 sec)
Heartbeat CPU 1 instructions: 260000038 cycles: 108142253 heartbeat IPC: 2.019 cumulative IPC: 2.058 (Simulation time: 02 hr 19 min 49 sec)
Simulation finished CPU 1 instructions: 100000003 cycles: 48647946 cumulative IPC: 2.056 (Simulation time: 02 hr 20 min 47 sec)
Heartbeat CPU 2 instructions: 440000001 cycles: 110009444 heartbeat IPC: 4 cumulative IPC: 4 (Simulation time: 02 hr 21 min 50 sec)
Heartbeat CPU 3 instructions: 440000004 cycles: 110009564 heartbeat IPC: 4 cumulative IPC: 4 (Simulation time: 02 hr 21 min 50 sec)
Heartbeat CPU 2 instructions: 450000001 cycles: 112509444 heartbeat IPC: 4 cumulative IPC: 4 (Simulation time: 02 hr 24 min 33 sec)
Heartbeat CPU 3 instructions: 450000004 cycles: 112509564 heartbeat IPC: 4 cumulative IPC: 4 (Simulation time: 02 hr 24 min 33 sec)
Heartbeat CPU 1 instructions: 270000040 cycles: 113186517 heartbeat IPC: 1.982 cumulative IPC: 2.051 (Simulation time: 02 hr 25 min 17 sec)
Heartbeat CPU 2 instructions: 460000001 cycles: 115009444 heartbeat IPC: 4 cumulative IPC: 4 (Simulation time: 02 hr 27 min 13 sec)
Heartbeat CPU 3 instructions: 460000004 cycles: 115009564 heartbeat IPC: 4 cumulative IPC: 4 (Simulation time: 02 hr 27 min 13 sec)
Heartbeat CPU 0 instructions: 80000009 cycles: 116276678 heartbeat IPC: 0.5504 cumulative IPC: 0.5367 (Simulation time: 02 hr 28 min 34 sec)
Heartbeat CPU 2 instructions: 470000001 cycles: 117509444 heartbeat IPC: 4 cumulative IPC: 4 (Simulation time: 02 hr 29 min 50 sec)
Heartbeat CPU 3 instructions: 470000004 cycles: 117509564 heartbeat IPC: 4 cumulative IPC: 4 (Simulation time: 02 hr 29 min 50 sec)
Heartbeat CPU 1 instructions: 280000042 cycles: 119588133 heartbeat IPC: 1.562 cumulative IPC: 1.998 (Simulation time: 02 hr 31 min 59 sec)
Heartbeat CPU 2 instructions: 480000001 cycles: 120009444 heartbeat IPC: 4 cumulative IPC: 4 (Simulation time: 02 hr 32 min 26 sec)
Heartbeat CPU 3 instructions: 480000004 cycles: 120009564 heartbeat IPC: 4 cumulative IPC: 4 (Simulation time: 02 hr 32 min 26 sec)
Heartbeat CPU 2 instructions: 490000001 cycles: 122509444 heartbeat IPC: 4 cumulative IPC: 4 (Simulation time: 02 hr 35 min 03 sec)
Heartbeat CPU 3 instructions: 490000004 cycles: 122509564 heartbeat IPC: 4 cumulative IPC: 4 (Simulation time: 02 hr 35 min 03 sec)
Heartbeat CPU 2 instructions: 500000001 cycles: 125009444 heartbeat IPC: 4 cumulative IPC: 4 (Simulation time: 02 hr 37 min 42 sec)
Heartbeat CPU 3 instructions: 500000004 cycles: 125009564 heartbeat IPC: 4 cumulative IPC: 4 (Simulation time: 02 hr 37 min 42 sec)
Heartbeat CPU 1 instructions: 290000042 cycles: 126133044 heartbeat IPC: 1.528 cumulative IPC: 1.951 (Simulation time: 02 hr 38 min 53 sec)
Heartbeat CPU 2 instructions: 510000001 cycles: 127509444 heartbeat IPC: 4 cumulative IPC: 4 (Simulation time: 02 hr 40 min 22 sec)
Heartbeat CPU 3 instructions: 510000004 cycles: 127509564 heartbeat IPC: 4 cumulative IPC: 4 (Simulation time: 02 hr 40 min 22 sec)
Heartbeat CPU 2 instructions: 520000001 cycles: 130009444 heartbeat IPC: 4 cumulative IPC: 4 (Simulation time: 02 hr 43 min 01 sec)
Heartbeat CPU 3 instructions: 520000004 cycles: 130009564 heartbeat IPC: 4 cumulative IPC: 4 (Simulation time: 02 hr 43 min 01 sec)
Heartbeat CPU 1 instructions: 300000043 cycles: 131247997 heartbeat IPC: 1.955 cumulative IPC: 1.952 (Simulation time: 02 hr 44 min 21 sec)
Heartbeat CPU 2 instructions: 530000001 cycles: 132509444 heartbeat IPC: 4 cumulative IPC: 4 (Simulation time: 02 hr 45 min 43 sec)
Heartbeat CPU 3 instructions: 530000004 cycles: 132509564 heartbeat IPC: 4 cumulative IPC: 4 (Simulation time: 02 hr 45 min 43 sec)
*** Reached end of trace: (3, "/home/harshraj/COALESCE-Hashed-Perceptron-Cache-Replacement-Policy/simulator/traces/barnes_4t3.champsimtrace")
Heartbeat CPU 2 instructions: 540000001 cycles: 135009444 heartbeat IPC: 4 cumulative IPC: 4 (Simulation time: 02 hr 48 min 24 sec)
Heartbeat CPU 3 instructions: 540000006 cycles: 135017175 heartbeat IPC: 3.988 cumulative IPC: 4 (Simulation time: 02 hr 48 min 25 sec)
Heartbeat CPU 0 instructions: 90000010 cycles: 135561056 heartbeat IPC: 0.5186 cumulative IPC: 0.5321 (Simulation time: 02 hr 49 min 00 sec)
Heartbeat CPU 1 instructions: 310000043 cycles: 136153681 heartbeat IPC: 2.038 cumulative IPC: 1.957 (Simulation time: 02 hr 49 min 39 sec)
Heartbeat CPU 2 instructions: 550000001 cycles: 137509444 heartbeat IPC: 4 cumulative IPC: 4 (Simulation time: 02 hr 51 min 07 sec)
Heartbeat CPU 3 instructions: 550000006 cycles: 137517175 heartbeat IPC: 4 cumulative IPC: 4 (Simulation time: 02 hr 51 min 07 sec)
*** Reached end of trace: (2, "/home/harshraj/COALESCE-Hashed-Perceptron-Cache-Replacement-Policy/simulator/traces/barnes_4t2.champsimtrace")
Heartbeat CPU 2 instructions: 560000001 cycles: 140015498 heartbeat IPC: 3.99 cumulative IPC: 4 (Simulation time: 02 hr 53 min 52 sec)
Heartbeat CPU 3 instructions: 560000006 cycles: 140017175 heartbeat IPC: 4 cumulative IPC: 4 (Simulation time: 02 hr 53 min 52 sec)
Heartbeat CPU 1 instructions: 320000046 cycles: 141330837 heartbeat IPC: 1.932 cumulative IPC: 1.956 (Simulation time: 02 hr 55 min 19 sec)
Heartbeat CPU 2 instructions: 570000001 cycles: 142515498 heartbeat IPC: 4 cumulative IPC: 4 (Simulation time: 02 hr 56 min 36 sec)
Heartbeat CPU 3 instructions: 570000006 cycles: 142517175 heartbeat IPC: 4 cumulative IPC: 4 (Simulation time: 02 hr 56 min 36 sec)
Heartbeat CPU 2 instructions: 580000001 cycles: 145015498 heartbeat IPC: 4 cumulative IPC: 4 (Simulation time: 02 hr 59 min 18 sec)
Heartbeat CPU 3 instructions: 580000006 cycles: 145017175 heartbeat IPC: 4 cumulative IPC: 4 (Simulation time: 02 hr 59 min 18 sec)
Heartbeat CPU 1 instructions: 330000048 cycles: 146420524 heartbeat IPC: 1.965 cumulative IPC: 1.956 (Simulation time: 03 hr 00 min 48 sec)
Heartbeat CPU 2 instructions: 590000001 cycles: 147515498 heartbeat IPC: 4 cumulative IPC: 4 (Simulation time: 03 hr 01 min 59 sec)
Heartbeat CPU 3 instructions: 590000006 cycles: 147517175 heartbeat IPC: 4 cumulative IPC: 4 (Simulation time: 03 hr 01 min 59 sec)
Heartbeat CPU 2 instructions: 600000001 cycles: 150015498 heartbeat IPC: 4 cumulative IPC: 4 (Simulation time: 03 hr 04 min 43 sec)
Heartbeat CPU 3 instructions: 600000006 cycles: 150017175 heartbeat IPC: 4 cumulative IPC: 4 (Simulation time: 03 hr 04 min 43 sec)
Heartbeat CPU 1 instructions: 340000051 cycles: 151278423 heartbeat IPC: 2.059 cumulative IPC: 1.962 (Simulation time: 03 hr 06 min 05 sec)
Heartbeat CPU 2 instructions: 610000001 cycles: 152515498 heartbeat IPC: 4 cumulative IPC: 4 (Simulation time: 03 hr 07 min 25 sec)
Heartbeat CPU 3 instructions: 610000006 cycles: 152517175 heartbeat IPC: 4 cumulative IPC: 4 (Simulation time: 03 hr 07 min 25 sec)
Heartbeat CPU 0 instructions: 100000010 cycles: 153601444 heartbeat IPC: 0.5543 cumulative IPC: 0.5364 (Simulation time: 03 hr 08 min 36 sec)
Heartbeat CPU 2 instructions: 620000001 cycles: 155015498 heartbeat IPC: 4 cumulative IPC: 4 (Simulation time: 03 hr 10 min 09 sec)
Heartbeat CPU 3 instructions: 620000006 cycles: 155017175 heartbeat IPC: 4 cumulative IPC: 4 (Simulation time: 03 hr 10 min 09 sec)
Heartbeat CPU 1 instructions: 350000052 cycles: 155708976 heartbeat IPC: 2.257 cumulative IPC: 1.975 (Simulation time: 03 hr 10 min 53 sec)
Heartbeat CPU 2 instructions: 630000001 cycles: 157515498 heartbeat IPC: 4 cumulative IPC: 4 (Simulation time: 03 hr 12 min 51 sec)
Heartbeat CPU 3 instructions: 630000006 cycles: 157517175 heartbeat IPC: 4 cumulative IPC: 4 (Simulation time: 03 hr 12 min 51 sec)
Heartbeat CPU 2 instructions: 640000001 cycles: 160015498 heartbeat IPC: 4 cumulative IPC: 4 (Simulation time: 03 hr 15 min 33 sec)
Heartbeat CPU 3 instructions: 640000006 cycles: 160017175 heartbeat IPC: 4 cumulative IPC: 4 (Simulation time: 03 hr 15 min 34 sec)
Heartbeat CPU 1 instructions: 360000055 cycles: 160729006 heartbeat IPC: 1.992 cumulative IPC: 1.976 (Simulation time: 03 hr 16 min 19 sec)
Heartbeat CPU 2 instructions: 650000001 cycles: 162515498 heartbeat IPC: 4 cumulative IPC: 4 (Simulation time: 03 hr 18 min 15 sec)
Heartbeat CPU 3 instructions: 650000006 cycles: 162517175 heartbeat IPC: 4 cumulative IPC: 4 (Simulation time: 03 hr 18 min 15 sec)
Heartbeat CPU 2 instructions: 660000001 cycles: 165015498 heartbeat IPC: 4 cumulative IPC: 4 (Simulation time: 03 hr 21 min 00 sec)
Heartbeat CPU 3 instructions: 660000006 cycles: 165017175 heartbeat IPC: 4 cumulative IPC: 4 (Simulation time: 03 hr 21 min 00 sec)
Heartbeat CPU 1 instructions: 370000056 cycles: 165445741 heartbeat IPC: 2.12 cumulative IPC: 1.983 (Simulation time: 03 hr 21 min 28 sec)
Heartbeat CPU 2 instructions: 670000001 cycles: 167515498 heartbeat IPC: 4 cumulative IPC: 4 (Simulation time: 03 hr 23 min 42 sec)
Heartbeat CPU 3 instructions: 670000006 cycles: 167517175 heartbeat IPC: 4 cumulative IPC: 4 (Simulation time: 03 hr 23 min 42 sec)
Heartbeat CPU 2 instructions: 680000001 cycles: 170015498 heartbeat IPC: 4 cumulative IPC: 4 (Simulation time: 03 hr 26 min 25 sec)
Heartbeat CPU 3 instructions: 680000006 cycles: 170017175 heartbeat IPC: 4 cumulative IPC: 4 (Simulation time: 03 hr 26 min 25 sec)
Heartbeat CPU 0 instructions: 110000010 cycles: 170214012 heartbeat IPC: 0.602 cumulative IPC: 0.5463 (Simulation time: 03 hr 26 min 37 sec)
Heartbeat CPU 1 instructions: 380000058 cycles: 170426297 heartbeat IPC: 2.008 cumulative IPC: 1.984 (Simulation time: 03 hr 26 min 51 sec)
Heartbeat CPU 2 instructions: 690000001 cycles: 172515498 heartbeat IPC: 4 cumulative IPC: 4 (Simulation time: 03 hr 29 min 07 sec)
Heartbeat CPU 3 instructions: 690000006 cycles: 172517175 heartbeat IPC: 4 cumulative IPC: 4 (Simulation time: 03 hr 29 min 08 sec)
Heartbeat CPU 2 instructions: 700000001 cycles: 175015498 heartbeat IPC: 4 cumulative IPC: 4 (Simulation time: 03 hr 31 min 51 sec)
Heartbeat CPU 3 instructions: 700000006 cycles: 175017175 heartbeat IPC: 4 cumulative IPC: 4 (Simulation time: 03 hr 31 min 51 sec)
Heartbeat CPU 1 instructions: 390000061 cycles: 176079341 heartbeat IPC: 1.769 cumulative IPC: 1.973 (Simulation time: 03 hr 32 min 59 sec)
Heartbeat CPU 2 instructions: 710000001 cycles: 177515498 heartbeat IPC: 4 cumulative IPC: 4 (Simulation time: 03 hr 34 min 31 sec)
Heartbeat CPU 3 instructions: 710000006 cycles: 177517175 heartbeat IPC: 4 cumulative IPC: 4 (Simulation time: 03 hr 34 min 31 sec)
Heartbeat CPU 2 instructions: 720000001 cycles: 180015498 heartbeat IPC: 4 cumulative IPC: 4 (Simulation time: 03 hr 37 min 16 sec)
Heartbeat CPU 3 instructions: 720000006 cycles: 180017175 heartbeat IPC: 4 cumulative IPC: 4 (Simulation time: 03 hr 37 min 16 sec)
Heartbeat CPU 1 instructions: 400000063 cycles: 181966699 heartbeat IPC: 1.699 cumulative IPC: 1.96 (Simulation time: 03 hr 39 min 23 sec)
Heartbeat CPU 2 instructions: 730000001 cycles: 182515498 heartbeat IPC: 4 cumulative IPC: 4 (Simulation time: 03 hr 40 min 00 sec)
Heartbeat CPU 3 instructions: 730000006 cycles: 182517175 heartbeat IPC: 4 cumulative IPC: 4 (Simulation time: 03 hr 40 min 00 sec)
Heartbeat CPU 2 instructions: 740000001 cycles: 185015498 heartbeat IPC: 4 cumulative IPC: 4 (Simulation time: 03 hr 42 min 44 sec)
Heartbeat CPU 3 instructions: 740000006 cycles: 185017175 heartbeat IPC: 4 cumulative IPC: 4 (Simulation time: 03 hr 42 min 45 sec)
Heartbeat CPU 0 instructions: 120000010 cycles: 186256928 heartbeat IPC: 0.6233 cumulative IPC: 0.5561 (Simulation time: 03 hr 44 min 09 sec)
Heartbeat CPU 1 instructions: 410000064 cycles: 187406950 heartbeat IPC: 1.838 cumulative IPC: 1.955 (Simulation time: 03 hr 45 min 32 sec)
Heartbeat CPU 2 instructions: 750000001 cycles: 187515498 heartbeat IPC: 4 cumulative IPC: 4 (Simulation time: 03 hr 45 min 40 sec)
Heartbeat CPU 3 instructions: 750000006 cycles: 187517175 heartbeat IPC: 4 cumulative IPC: 4 (Simulation time: 03 hr 45 min 40 sec)
Heartbeat CPU 2 instructions: 760000001 cycles: 190015498 heartbeat IPC: 4 cumulative IPC: 4 (Simulation time: 03 hr 48 min 30 sec)
Heartbeat CPU 3 instructions: 760000006 cycles: 190017175 heartbeat IPC: 4 cumulative IPC: 4 (Simulation time: 03 hr 48 min 30 sec)
Heartbeat CPU 2 instructions: 770000001 cycles: 192515498 heartbeat IPC: 4 cumulative IPC: 4 (Simulation time: 03 hr 51 min 20 sec)
Heartbeat CPU 3 instructions: 770000006 cycles: 192517175 heartbeat IPC: 4 cumulative IPC: 4 (Simulation time: 03 hr 51 min 20 sec)
Heartbeat CPU 2 instructions: 780000001 cycles: 195015498 heartbeat IPC: 4 cumulative IPC: 4 (Simulation time: 03 hr 54 min 07 sec)
Heartbeat CPU 3 instructions: 780000006 cycles: 195017175 heartbeat IPC: 4 cumulative IPC: 4 (Simulation time: 03 hr 54 min 07 sec)
Heartbeat CPU 1 instructions: 420000066 cycles: 195560095 heartbeat IPC: 1.227 cumulative IPC: 1.911 (Simulation time: 03 hr 54 min 42 sec)
Heartbeat CPU 2 instructions: 790000001 cycles: 197515498 heartbeat IPC: 4 cumulative IPC: 4 (Simulation time: 03 hr 56 min 55 sec)
Heartbeat CPU 3 instructions: 790000006 cycles: 197517175 heartbeat IPC: 4 cumulative IPC: 4 (Simulation time: 03 hr 56 min 55 sec)
Heartbeat CPU 0 instructions: 130000012 cycles: 198446052 heartbeat IPC: 0.8204 cumulative IPC: 0.5795 (Simulation time: 03 hr 57 min 59 sec)
Heartbeat CPU 2 instructions: 800000001 cycles: 200015498 heartbeat IPC: 4 cumulative IPC: 4 (Simulation time: 03 hr 59 min 47 sec)
Heartbeat CPU 3 instructions: 800000006 cycles: 200017175 heartbeat IPC: 4 cumulative IPC: 4 (Simulation time: 03 hr 59 min 47 sec)
Heartbeat CPU 1 instructions: 430000066 cycles: 201232017 heartbeat IPC: 1.763 cumulative IPC: 1.905 (Simulation time: 04 hr 01 min 18 sec)
Heartbeat CPU 2 instructions: 810000001 cycles: 202515498 heartbeat IPC: 4 cumulative IPC: 4 (Simulation time: 04 hr 02 min 53 sec)
Heartbeat CPU 3 instructions: 810000006 cycles: 202517175 heartbeat IPC: 4 cumulative IPC: 4 (Simulation time: 04 hr 02 min 53 sec)
Heartbeat CPU 2 instructions: 820000001 cycles: 205015498 heartbeat IPC: 4 cumulative IPC: 4 (Simulation time: 04 hr 06 min 07 sec)
Heartbeat CPU 3 instructions: 820000006 cycles: 205017175 heartbeat IPC: 4 cumulative IPC: 4 (Simulation time: 04 hr 06 min 07 sec)
Heartbeat CPU 0 instructions: 140000013 cycles: 205130953 heartbeat IPC: 1.496 cumulative IPC: 0.6218 (Simulation time: 04 hr 06 min 16 sec)
Heartbeat CPU 1 instructions: 440000069 cycles: 206247145 heartbeat IPC: 1.994 cumulative IPC: 1.908 (Simulation time: 04 hr 07 min 44 sec)
Heartbeat CPU 2 instructions: 830000001 cycles: 207515498 heartbeat IPC: 4 cumulative IPC: 4 (Simulation time: 04 hr 09 min 16 sec)
Heartbeat CPU 3 instructions: 830000006 cycles: 207517175 heartbeat IPC: 4 cumulative IPC: 4 (Simulation time: 04 hr 09 min 17 sec)
Heartbeat CPU 2 instructions: 840000001 cycles: 210015498 heartbeat IPC: 4 cumulative IPC: 4 (Simulation time: 04 hr 12 min 15 sec)
Heartbeat CPU 3 instructions: 840000006 cycles: 210017175 heartbeat IPC: 4 cumulative IPC: 4 (Simulation time: 04 hr 12 min 15 sec)
Heartbeat CPU 1 instructions: 450000070 cycles: 211496048 heartbeat IPC: 1.905 cumulative IPC: 1.908 (Simulation time: 04 hr 14 min 00 sec)
Heartbeat CPU 2 instructions: 850000001 cycles: 212515498 heartbeat IPC: 4 cumulative IPC: 4 (Simulation time: 04 hr 15 min 13 sec)
Heartbeat CPU 3 instructions: 850000006 cycles: 212517175 heartbeat IPC: 4 cumulative IPC: 4 (Simulation time: 04 hr 15 min 13 sec)
Heartbeat CPU 2 instructions: 860000001 cycles: 215015498 heartbeat IPC: 4 cumulative IPC: 4 (Simulation time: 04 hr 18 min 06 sec)
Heartbeat CPU 3 instructions: 860000006 cycles: 215017175 heartbeat IPC: 4 cumulative IPC: 4 (Simulation time: 04 hr 18 min 06 sec)
Heartbeat CPU 1 instructions: 460000072 cycles: 216545038 heartbeat IPC: 1.981 cumulative IPC: 1.91 (Simulation time: 04 hr 19 min 48 sec)
Simulation finished CPU 0 instructions: 100000004 cycles: 156549335 cumulative IPC: 0.6388 (Simulation time: 04 hr 20 min 13 sec)
Simulation complete CPU 3 instructions: 626166624 cycles: 156549335 cumulative IPC: 4 (Simulation time: 04 hr 20 min 13 sec)
Simulation complete CPU 2 instructions: 626172876 cycles: 156549335 cumulative IPC: 4 (Simulation time: 04 hr 20 min 13 sec)
Simulation complete CPU 1 instructions: 299148861 cycles: 156549335 cumulative IPC: 1.911 (Simulation time: 04 hr 20 min 13 sec)
Simulation complete CPU 0 instructions: 100000004 cycles: 156549335 cumulative IPC: 0.6388 (Simulation time: 04 hr 20 min 13 sec)

ChampSim completed all CPUs

=== Simulation ===
CPU 0 runs /home/harshraj/COALESCE-Hashed-Perceptron-Cache-Replacement-Policy/simulator/traces/barnes_4t0.champsimtrace
CPU 1 runs /home/harshraj/COALESCE-Hashed-Perceptron-Cache-Replacement-Policy/simulator/traces/barnes_4t1.champsimtrace
CPU 2 runs /home/harshraj/COALESCE-Hashed-Perceptron-Cache-Replacement-Policy/simulator/traces/barnes_4t2.champsimtrace
CPU 3 runs /home/harshraj/COALESCE-Hashed-Perceptron-Cache-Replacement-Policy/simulator/traces/barnes_4t3.champsimtrace

Total Simulation Statistics (not including warmup)

CPU 3 cumulative IPC: 4 instructions: 626166624 cycles: 156549335
CPU 3 Branch Prediction Accuracy: -% MPKI: 0 Average ROB Occupancy at Mispredict: -
Branch type MPKI
BRANCH_DIRECT_JUMP: 0
BRANCH_INDIRECT: 0
BRANCH_CONDITIONAL: 0
BRANCH_DIRECT_CALL: 0
BRANCH_INDIRECT_CALL: 0
BRANCH_RETURN: 0


CPU 2 cumulative IPC: 4 instructions: 626172876 cycles: 156549335
CPU 2 Branch Prediction Accuracy: -% MPKI: 0 Average ROB Occupancy at Mispredict: -
Branch type MPKI
BRANCH_DIRECT_JUMP: 0
BRANCH_INDIRECT: 0
BRANCH_CONDITIONAL: 0
BRANCH_DIRECT_CALL: 0
BRANCH_INDIRECT_CALL: 0
BRANCH_RETURN: 0


CPU 1 cumulative IPC: 1.911 instructions: 299148861 cycles: 156549335
CPU 1 Branch Prediction Accuracy: -% MPKI: 0 Average ROB Occupancy at Mispredict: -
Branch type MPKI
BRANCH_DIRECT_JUMP: 0
BRANCH_INDIRECT: 0
BRANCH_CONDITIONAL: 0
BRANCH_DIRECT_CALL: 0
BRANCH_INDIRECT_CALL: 0
BRANCH_RETURN: 0


CPU 0 cumulative IPC: 0.6388 instructions: 100000004 cycles: 156549335
CPU 0 Branch Prediction Accuracy: -% MPKI: 0 Average ROB Occupancy at Mispredict: -
Branch type MPKI
BRANCH_DIRECT_JUMP: 0
BRANCH_INDIRECT: 0
BRANCH_CONDITIONAL: 0
BRANCH_DIRECT_CALL: 0
BRANCH_INDIRECT_CALL: 0
BRANCH_RETURN: 0

cpu3->cpu3_STLB TOTAL        ACCESS:         18 HIT:          8 MISS:         10 MSHR_MERGE:          0
cpu3->cpu3_STLB LOAD         ACCESS:         18 HIT:          8 MISS:         10 MSHR_MERGE:          0
cpu3->cpu3_STLB RFO          ACCESS:          0 HIT:          0 MISS:          0 MSHR_MERGE:          0
cpu3->cpu3_STLB PREFETCH     ACCESS:          0 HIT:          0 MISS:          0 MSHR_MERGE:          0
cpu3->cpu3_STLB WRITE        ACCESS:          0 HIT:          0 MISS:          0 MSHR_MERGE:          0
cpu3->cpu3_STLB TRANSLATION  ACCESS:          0 HIT:          0 MISS:          0 MSHR_MERGE:          0
cpu3->cpu3_STLB PREFETCH REQUESTED:          0 ISSUED:          0 USEFUL:          0 USELESS:          0
cpu3->cpu3_STLB AVERAGE MISS LATENCY: 703 cycles
cpu3_STLB COHERENCE INVALIDATIONS:          0
cpu3_STLB COHERENCE WRITE-HIT OTHER-SHARER EVENTS:          0
cpu3->cpu3_L2C TOTAL        ACCESS:         58 HIT:          4 MISS:         54 MSHR_MERGE:          0
cpu3->cpu3_L2C LOAD         ACCESS:         38 HIT:          4 MISS:         34 MSHR_MERGE:          0
cpu3->cpu3_L2C RFO          ACCESS:          0 HIT:          0 MISS:          0 MSHR_MERGE:          0
cpu3->cpu3_L2C PREFETCH     ACCESS:          0 HIT:          0 MISS:          0 MSHR_MERGE:          0
cpu3->cpu3_L2C WRITE        ACCESS:          0 HIT:          0 MISS:          0 MSHR_MERGE:          0
cpu3->cpu3_L2C TRANSLATION  ACCESS:         20 HIT:          0 MISS:         20 MSHR_MERGE:          0
cpu3->cpu3_L2C PREFETCH REQUESTED:          0 ISSUED:          0 USEFUL:          0 USELESS:          0
cpu3->cpu3_L2C AVERAGE MISS LATENCY: 217.1 cycles
cpu3_L2C COHERENCE INVALIDATIONS:          0
cpu3_L2C COHERENCE WRITE-HIT OTHER-SHARER EVENTS:          0
cpu3->cpu3_L1I TOTAL        ACCESS:   97714209 HIT:   97714156 MISS:         53 MSHR_MERGE:         15
cpu3->cpu3_L1I LOAD         ACCESS:   97714209 HIT:   97714156 MISS:         53 MSHR_MERGE:         15
cpu3->cpu3_L1I RFO          ACCESS:          0 HIT:          0 MISS:          0 MSHR_MERGE:          0
cpu3->cpu3_L1I PREFETCH     ACCESS:          0 HIT:          0 MISS:          0 MSHR_MERGE:          0
cpu3->cpu3_L1I WRITE        ACCESS:          0 HIT:          0 MISS:          0 MSHR_MERGE:          0
cpu3->cpu3_L1I TRANSLATION  ACCESS:          0 HIT:          0 MISS:          0 MSHR_MERGE:          0
cpu3->cpu3_L1I PREFETCH REQUESTED:          0 ISSUED:          0 USEFUL:          0 USELESS:          0
cpu3->cpu3_L1I AVERAGE MISS LATENCY: 212.4 cycles
cpu3_L1I COHERENCE INVALIDATIONS:          0
cpu3_L1I COHERENCE WRITE-HIT OTHER-SHARER EVENTS:          0
cpu3->cpu3_L1D TOTAL        ACCESS:         20 HIT:          0 MISS:         20 MSHR_MERGE:          0
cpu3->cpu3_L1D LOAD         ACCESS:          0 HIT:          0 MISS:          0 MSHR_MERGE:          0
cpu3->cpu3_L1D RFO          ACCESS:          0 HIT:          0 MISS:          0 MSHR_MERGE:          0
cpu3->cpu3_L1D PREFETCH     ACCESS:          0 HIT:          0 MISS:          0 MSHR_MERGE:          0
cpu3->cpu3_L1D WRITE        ACCESS:          0 HIT:          0 MISS:          0 MSHR_MERGE:          0
cpu3->cpu3_L1D TRANSLATION  ACCESS:         20 HIT:          0 MISS:         20 MSHR_MERGE:          0
cpu3->cpu3_L1D PREFETCH REQUESTED:          0 ISSUED:          0 USEFUL:          0 USELESS:          0
cpu3->cpu3_L1D AVERAGE MISS LATENCY: 205.5 cycles
cpu3_L1D COHERENCE INVALIDATIONS:          0
cpu3_L1D COHERENCE WRITE-HIT OTHER-SHARER EVENTS:          0
cpu3->cpu3_ITLB TOTAL        ACCESS:   77168255 HIT:   77168224 MISS:         31 MSHR_MERGE:         13
cpu3->cpu3_ITLB LOAD         ACCESS:   77168255 HIT:   77168224 MISS:         31 MSHR_MERGE:         13
cpu3->cpu3_ITLB RFO          ACCESS:          0 HIT:          0 MISS:          0 MSHR_MERGE:          0
cpu3->cpu3_ITLB PREFETCH     ACCESS:          0 HIT:          0 MISS:          0 MSHR_MERGE:          0
cpu3->cpu3_ITLB WRITE        ACCESS:          0 HIT:          0 MISS:          0 MSHR_MERGE:          0
cpu3->cpu3_ITLB TRANSLATION  ACCESS:          0 HIT:          0 MISS:          0 MSHR_MERGE:          0
cpu3->cpu3_ITLB PREFETCH REQUESTED:          0 ISSUED:          0 USEFUL:          0 USELESS:          0
cpu3->cpu3_ITLB AVERAGE MISS LATENCY: 395.1 cycles
cpu3_ITLB COHERENCE INVALIDATIONS:          0
cpu3_ITLB COHERENCE WRITE-HIT OTHER-SHARER EVENTS:          0
cpu3_DTLB COHERENCE INVALIDATIONS:          0
cpu3_DTLB COHERENCE WRITE-HIT OTHER-SHARER EVENTS:          0
cpu2->cpu2_STLB TOTAL        ACCESS:         17 HIT:          7 MISS:         10 MSHR_MERGE:          0
cpu2->cpu2_STLB LOAD         ACCESS:         17 HIT:          7 MISS:         10 MSHR_MERGE:          0
cpu2->cpu2_STLB RFO          ACCESS:          0 HIT:          0 MISS:          0 MSHR_MERGE:          0
cpu2->cpu2_STLB PREFETCH     ACCESS:          0 HIT:          0 MISS:          0 MSHR_MERGE:          0
cpu2->cpu2_STLB WRITE        ACCESS:          0 HIT:          0 MISS:          0 MSHR_MERGE:          0
cpu2->cpu2_STLB TRANSLATION  ACCESS:          0 HIT:          0 MISS:          0 MSHR_MERGE:          0
cpu2->cpu2_STLB PREFETCH REQUESTED:          0 ISSUED:          0 USEFUL:          0 USELESS:          0
cpu2->cpu2_STLB AVERAGE MISS LATENCY: 603.4 cycles
cpu2_STLB COHERENCE INVALIDATIONS:          0
cpu2_STLB COHERENCE WRITE-HIT OTHER-SHARER EVENTS:          0
cpu2->cpu2_L2C TOTAL        ACCESS:         58 HIT:          4 MISS:         54 MSHR_MERGE:          0
cpu2->cpu2_L2C LOAD         ACCESS:         38 HIT:          4 MISS:         34 MSHR_MERGE:          0
cpu2->cpu2_L2C RFO          ACCESS:          0 HIT:          0 MISS:          0 MSHR_MERGE:          0
cpu2->cpu2_L2C PREFETCH     ACCESS:          0 HIT:          0 MISS:          0 MSHR_MERGE:          0
cpu2->cpu2_L2C WRITE        ACCESS:          0 HIT:          0 MISS:          0 MSHR_MERGE:          0
cpu2->cpu2_L2C TRANSLATION  ACCESS:         20 HIT:          0 MISS:         20 MSHR_MERGE:          0
cpu2->cpu2_L2C PREFETCH REQUESTED:          0 ISSUED:          0 USEFUL:          0 USELESS:          0
cpu2->cpu2_L2C AVERAGE MISS LATENCY: 81.59 cycles
cpu2_L2C COHERENCE INVALIDATIONS:          0
cpu2_L2C COHERENCE WRITE-HIT OTHER-SHARER EVENTS:          0
cpu2->cpu2_L1I TOTAL        ACCESS:  100560152 HIT:  100560102 MISS:         50 MSHR_MERGE:         12
cpu2->cpu2_L1I LOAD         ACCESS:  100560152 HIT:  100560102 MISS:         50 MSHR_MERGE:         12
cpu2->cpu2_L1I RFO          ACCESS:          0 HIT:          0 MISS:          0 MSHR_MERGE:          0
cpu2->cpu2_L1I PREFETCH     ACCESS:          0 HIT:          0 MISS:          0 MSHR_MERGE:          0
cpu2->cpu2_L1I WRITE        ACCESS:          0 HIT:          0 MISS:          0 MSHR_MERGE:          0
cpu2->cpu2_L1I TRANSLATION  ACCESS:          0 HIT:          0 MISS:          0 MSHR_MERGE:          0
cpu2->cpu2_L1I PREFETCH REQUESTED:          0 ISSUED:          0 USEFUL:          0 USELESS:          0
cpu2->cpu2_L1I AVERAGE MISS LATENCY: 25.05 cycles
cpu2_L1I COHERENCE INVALIDATIONS:          0
cpu2_L1I COHERENCE WRITE-HIT OTHER-SHARER EVENTS:          0
cpu2->cpu2_L1D TOTAL        ACCESS:         20 HIT:          0 MISS:         20 MSHR_MERGE:          0
cpu2->cpu2_L1D LOAD         ACCESS:          0 HIT:          0 MISS:          0 MSHR_MERGE:          0
cpu2->cpu2_L1D RFO          ACCESS:          0 HIT:          0 MISS:          0 MSHR_MERGE:          0
cpu2->cpu2_L1D PREFETCH     ACCESS:          0 HIT:          0 MISS:          0 MSHR_MERGE:          0
cpu2->cpu2_L1D WRITE        ACCESS:          0 HIT:          0 MISS:          0 MSHR_MERGE:          0
cpu2->cpu2_L1D TRANSLATION  ACCESS:         20 HIT:          0 MISS:         20 MSHR_MERGE:          0
cpu2->cpu2_L1D PREFETCH REQUESTED:          0 ISSUED:          0 USEFUL:          0 USELESS:          0
cpu2->cpu2_L1D AVERAGE MISS LATENCY: 195.7 cycles
cpu2_L1D COHERENCE INVALIDATIONS:          0
cpu2_L1D COHERENCE WRITE-HIT OTHER-SHARER EVENTS:          0
cpu2->cpu2_ITLB TOTAL        ACCESS:   77614050 HIT:   77614023 MISS:         27 MSHR_MERGE:         10
cpu2->cpu2_ITLB LOAD         ACCESS:   77614050 HIT:   77614023 MISS:         27 MSHR_MERGE:         10
cpu2->cpu2_ITLB RFO          ACCESS:          0 HIT:          0 MISS:          0 MSHR_MERGE:          0
cpu2->cpu2_ITLB PREFETCH     ACCESS:          0 HIT:          0 MISS:          0 MSHR_MERGE:          0
cpu2->cpu2_ITLB WRITE        ACCESS:          0 HIT:          0 MISS:          0 MSHR_MERGE:          0
cpu2->cpu2_ITLB TRANSLATION  ACCESS:          0 HIT:          0 MISS:          0 MSHR_MERGE:          0
cpu2->cpu2_ITLB PREFETCH REQUESTED:          0 ISSUED:          0 USEFUL:          0 USELESS:          0
cpu2->cpu2_ITLB AVERAGE MISS LATENCY: 359.5 cycles
cpu2_ITLB COHERENCE INVALIDATIONS:          0
cpu2_ITLB COHERENCE WRITE-HIT OTHER-SHARER EVENTS:          0
cpu2_DTLB COHERENCE INVALIDATIONS:          0
cpu2_DTLB COHERENCE WRITE-HIT OTHER-SHARER EVENTS:          0
cpu1->cpu1_STLB TOTAL        ACCESS:    1119586 HIT:    1119418 MISS:        168 MSHR_MERGE:          0
cpu1->cpu1_STLB LOAD         ACCESS:    1119586 HIT:    1119418 MISS:        168 MSHR_MERGE:          0
cpu1->cpu1_STLB RFO          ACCESS:          0 HIT:          0 MISS:          0 MSHR_MERGE:          0
cpu1->cpu1_STLB PREFETCH     ACCESS:          0 HIT:          0 MISS:          0 MSHR_MERGE:          0
cpu1->cpu1_STLB WRITE        ACCESS:          0 HIT:          0 MISS:          0 MSHR_MERGE:          0
cpu1->cpu1_STLB TRANSLATION  ACCESS:          0 HIT:          0 MISS:          0 MSHR_MERGE:          0
cpu1->cpu1_STLB PREFETCH REQUESTED:          0 ISSUED:          0 USEFUL:          0 USELESS:          0
cpu1->cpu1_STLB AVERAGE MISS LATENCY: 644.5 cycles
cpu1_STLB COHERENCE INVALIDATIONS:          0
cpu1_STLB COHERENCE WRITE-HIT OTHER-SHARER EVENTS:          0
cpu1->cpu1_L2C TOTAL        ACCESS:    3335452 HIT:    3049338 MISS:     286114 MSHR_MERGE:          0
cpu1->cpu1_L2C LOAD         ACCESS:    3335255 HIT:    3049338 MISS:     285917 MSHR_MERGE:          0
cpu1->cpu1_L2C RFO          ACCESS:          0 HIT:          0 MISS:          0 MSHR_MERGE:          0
cpu1->cpu1_L2C PREFETCH     ACCESS:          0 HIT:          0 MISS:          0 MSHR_MERGE:          0
cpu1->cpu1_L2C WRITE        ACCESS:          0 HIT:          0 MISS:          0 MSHR_MERGE:          0
cpu1->cpu1_L2C TRANSLATION  ACCESS:        197 HIT:          0 MISS:        197 MSHR_MERGE:          0
cpu1->cpu1_L2C PREFETCH REQUESTED:          0 ISSUED:          0 USEFUL:          0 USELESS:          0
cpu1->cpu1_L2C AVERAGE MISS LATENCY: 112.2 cycles
cpu1_L2C COHERENCE INVALIDATIONS:          0
cpu1_L2C COHERENCE WRITE-HIT OTHER-SHARER EVENTS:          0
cpu1->cpu1_L1I TOTAL        ACCESS:   62915394 HIT:   59524437 MISS:    3390957 MSHR_MERGE:      55702
cpu1->cpu1_L1I LOAD         ACCESS:   62915394 HIT:   59524437 MISS:    3390957 MSHR_MERGE:      55702
cpu1->cpu1_L1I RFO          ACCESS:          0 HIT:          0 MISS:          0 MSHR_MERGE:          0
cpu1->cpu1_L1I PREFETCH     ACCESS:          0 HIT:          0 MISS:          0 MSHR_MERGE:          0
cpu1->cpu1_L1I WRITE        ACCESS:          0 HIT:          0 MISS:          0 MSHR_MERGE:          0
cpu1->cpu1_L1I TRANSLATION  ACCESS:          0 HIT:          0 MISS:          0 MSHR_MERGE:          0
cpu1->cpu1_L1I PREFETCH REQUESTED:          0 ISSUED:          0 USEFUL:          0 USELESS:          0
cpu1->cpu1_L1I AVERAGE MISS LATENCY: 16.87 cycles
cpu1_L1I COHERENCE INVALIDATIONS:          0
cpu1_L1I COHERENCE WRITE-HIT OTHER-SHARER EVENTS:          0
cpu1->cpu1_L1D TOTAL        ACCESS:        339 HIT:        142 MISS:        197 MSHR_MERGE:          0
cpu1->cpu1_L1D LOAD         ACCESS:          0 HIT:          0 MISS:          0 MSHR_MERGE:          0
cpu1->cpu1_L1D RFO          ACCESS:          0 HIT:          0 MISS:          0 MSHR_MERGE:          0
cpu1->cpu1_L1D PREFETCH     ACCESS:          0 HIT:          0 MISS:          0 MSHR_MERGE:          0
cpu1->cpu1_L1D WRITE        ACCESS:          0 HIT:          0 MISS:          0 MSHR_MERGE:          0
cpu1->cpu1_L1D TRANSLATION  ACCESS:        339 HIT:        142 MISS:        197 MSHR_MERGE:          0
cpu1->cpu1_L1D PREFETCH REQUESTED:          0 ISSUED:          0 USEFUL:          0 USELESS:          0
cpu1->cpu1_L1D AVERAGE MISS LATENCY: 202 cycles
cpu1_L1D COHERENCE INVALIDATIONS:          0
cpu1_L1D COHERENCE WRITE-HIT OTHER-SHARER EVENTS:          0
cpu1->cpu1_ITLB TOTAL        ACCESS:   60474942 HIT:   59295136 MISS:    1179806 MSHR_MERGE:      60220
cpu1->cpu1_ITLB LOAD         ACCESS:   60474942 HIT:   59295136 MISS:    1179806 MSHR_MERGE:      60220
cpu1->cpu1_ITLB RFO          ACCESS:          0 HIT:          0 MISS:          0 MSHR_MERGE:          0
cpu1->cpu1_ITLB PREFETCH     ACCESS:          0 HIT:          0 MISS:          0 MSHR_MERGE:          0
cpu1->cpu1_ITLB WRITE        ACCESS:          0 HIT:          0 MISS:          0 MSHR_MERGE:          0
cpu1->cpu1_ITLB TRANSLATION  ACCESS:          0 HIT:          0 MISS:          0 MSHR_MERGE:          0
cpu1->cpu1_ITLB PREFETCH REQUESTED:          0 ISSUED:          0 USEFUL:          0 USELESS:          0
cpu1->cpu1_ITLB AVERAGE MISS LATENCY: 4.097 cycles
cpu1_ITLB COHERENCE INVALIDATIONS:          0
cpu1_ITLB COHERENCE WRITE-HIT OTHER-SHARER EVENTS:          0
cpu1_DTLB COHERENCE INVALIDATIONS:          0
cpu1_DTLB COHERENCE WRITE-HIT OTHER-SHARER EVENTS:          0
cpu0->cpu0_STLB TOTAL        ACCESS:    3018229 HIT:    3005293 MISS:      12936 MSHR_MERGE:          0
cpu0->cpu0_STLB LOAD         ACCESS:    3018229 HIT:    3005293 MISS:      12936 MSHR_MERGE:          0
cpu0->cpu0_STLB RFO          ACCESS:          0 HIT:          0 MISS:          0 MSHR_MERGE:          0
cpu0->cpu0_STLB PREFETCH     ACCESS:          0 HIT:          0 MISS:          0 MSHR_MERGE:          0
cpu0->cpu0_STLB WRITE        ACCESS:          0 HIT:          0 MISS:          0 MSHR_MERGE:          0
cpu0->cpu0_STLB TRANSLATION  ACCESS:          0 HIT:          0 MISS:          0 MSHR_MERGE:          0
cpu0->cpu0_STLB PREFETCH REQUESTED:          0 ISSUED:          0 USEFUL:          0 USELESS:          0
cpu0->cpu0_STLB AVERAGE MISS LATENCY: 201.3 cycles
cpu0_STLB COHERENCE INVALIDATIONS:          0
cpu0_STLB COHERENCE WRITE-HIT OTHER-SHARER EVENTS:          0
cpu0->cpu0_L2C TOTAL        ACCESS:    4709810 HIT:    4298817 MISS:     410993 MSHR_MERGE:          0
cpu0->cpu0_L2C LOAD         ACCESS:    3758866 HIT:    3413722 MISS:     345144 MSHR_MERGE:          0
cpu0->cpu0_L2C RFO          ACCESS:     343585 HIT:     291713 MISS:      51872 MSHR_MERGE:          0
cpu0->cpu0_L2C PREFETCH     ACCESS:          0 HIT:          0 MISS:          0 MSHR_MERGE:          0
cpu0->cpu0_L2C WRITE        ACCESS:     579164 HIT:     578886 MISS:        278 MSHR_MERGE:          0
cpu0->cpu0_L2C TRANSLATION  ACCESS:      28195 HIT:      14496 MISS:      13699 MSHR_MERGE:          0
cpu0->cpu0_L2C PREFETCH REQUESTED:          0 ISSUED:          0 USEFUL:          0 USELESS:          0
cpu0->cpu0_L2C AVERAGE MISS LATENCY: 124.4 cycles
cpu0_L2C COHERENCE INVALIDATIONS:          0
cpu0_L2C COHERENCE WRITE-HIT OTHER-SHARER EVENTS:          0
cpu0->cpu0_L1I TOTAL        ACCESS:   25283600 HIT:   25283580 MISS:         20 MSHR_MERGE:          7
cpu0->cpu0_L1I LOAD         ACCESS:   25283600 HIT:   25283580 MISS:         20 MSHR_MERGE:          7
cpu0->cpu0_L1I RFO          ACCESS:          0 HIT:          0 MISS:          0 MSHR_MERGE:          0
cpu0->cpu0_L1I PREFETCH     ACCESS:          0 HIT:          0 MISS:          0 MSHR_MERGE:          0
cpu0->cpu0_L1I WRITE        ACCESS:          0 HIT:          0 MISS:          0 MSHR_MERGE:          0
cpu0->cpu0_L1I TRANSLATION  ACCESS:          0 HIT:          0 MISS:          0 MSHR_MERGE:          0
cpu0->cpu0_L1I PREFETCH REQUESTED:          0 ISSUED:          0 USEFUL:          0 USELESS:          0
cpu0->cpu0_L1I AVERAGE MISS LATENCY: 170.7 cycles
cpu0_L1I COHERENCE INVALIDATIONS:          0
cpu0_L1I COHERENCE WRITE-HIT OTHER-SHARER EVENTS:          0
cpu0->cpu0_L1D TOTAL        ACCESS:   63890103 HIT:   59677998 MISS:    4212105 MSHR_MERGE:      80969
cpu0->cpu0_L1D LOAD         ACCESS:   16844010 HIT:   13074639 MISS:    3769371 MSHR_MERGE:      10428
cpu0->cpu0_L1D RFO          ACCESS:          0 HIT:          0 MISS:          0 MSHR_MERGE:          0
cpu0->cpu0_L1D PREFETCH     ACCESS:          0 HIT:          0 MISS:          0 MSHR_MERGE:          0
cpu0->cpu0_L1D WRITE        ACCESS:   47014739 HIT:   46600205 MISS:     414534 MSHR_MERGE:      70536
cpu0->cpu0_L1D TRANSLATION  ACCESS:      31354 HIT:       3154 MISS:      28200 MSHR_MERGE:          5
cpu0->cpu0_L1D PREFETCH REQUESTED:          0 ISSUED:          0 USEFUL:          0 USELESS:          0
cpu0->cpu0_L1D AVERAGE MISS LATENCY: 19.68 cycles
cpu0_L1D COHERENCE INVALIDATIONS:          0
cpu0_L1D COHERENCE WRITE-HIT OTHER-SHARER EVENTS:          0
cpu0->cpu0_ITLB TOTAL        ACCESS:   22791147 HIT:   22791147 MISS:          0 MSHR_MERGE:          0
cpu0->cpu0_ITLB LOAD         ACCESS:   22791147 HIT:   22791147 MISS:          0 MSHR_MERGE:          0
cpu0->cpu0_ITLB RFO          ACCESS:          0 HIT:          0 MISS:          0 MSHR_MERGE:          0
cpu0->cpu0_ITLB PREFETCH     ACCESS:          0 HIT:          0 MISS:          0 MSHR_MERGE:          0
cpu0->cpu0_ITLB WRITE        ACCESS:          0 HIT:          0 MISS:          0 MSHR_MERGE:          0
cpu0->cpu0_ITLB TRANSLATION  ACCESS:          0 HIT:          0 MISS:          0 MSHR_MERGE:          0
cpu0->cpu0_ITLB PREFETCH REQUESTED:          0 ISSUED:          0 USEFUL:          0 USELESS:          0
cpu0->cpu0_ITLB AVERAGE MISS LATENCY: - cycles
cpu0_ITLB COHERENCE INVALIDATIONS:          0
cpu0_ITLB COHERENCE WRITE-HIT OTHER-SHARER EVENTS:          0
cpu0->cpu0_DTLB TOTAL        ACCESS:   62050817 HIT:   58862282 MISS:    3188535 MSHR_MERGE:     170306
cpu0->cpu0_DTLB LOAD         ACCESS:   62050817 HIT:   58862282 MISS:    3188535 MSHR_MERGE:     170306
cpu0->cpu0_DTLB RFO          ACCESS:          0 HIT:          0 MISS:          0 MSHR_MERGE:          0
cpu0->cpu0_DTLB PREFETCH     ACCESS:          0 HIT:          0 MISS:          0 MSHR_MERGE:          0
cpu0->cpu0_DTLB WRITE        ACCESS:          0 HIT:          0 MISS:          0 MSHR_MERGE:          0
cpu0->cpu0_DTLB TRANSLATION  ACCESS:          0 HIT:          0 MISS:          0 MSHR_MERGE:          0
cpu0->cpu0_DTLB PREFETCH REQUESTED:          0 ISSUED:          0 USEFUL:          0 USELESS:          0
cpu0->cpu0_DTLB AVERAGE MISS LATENCY: 4.867 cycles
cpu0_DTLB COHERENCE INVALIDATIONS:          0
cpu0_DTLB COHERENCE WRITE-HIT OTHER-SHARER EVENTS:          0
cpu0->LLC TOTAL        ACCESS:     515511 HIT:     290077 MISS:     225434 MSHR_MERGE:          0
cpu0->LLC LOAD         ACCESS:     345144 HIT:     163427 MISS:     181717 MSHR_MERGE:          0
cpu0->LLC RFO          ACCESS:      51872 HIT:      18675 MISS:      33197 MSHR_MERGE:          0
cpu0->LLC PREFETCH     ACCESS:          0 HIT:          0 MISS:          0 MSHR_MERGE:          0
cpu0->LLC WRITE        ACCESS:     104796 HIT:     102664 MISS:       2132 MSHR_MERGE:          0
cpu0->LLC TRANSLATION  ACCESS:      13699 HIT:       5311 MISS:       8388 MSHR_MERGE:          0
cpu0->LLC PREFETCH REQUESTED:          0 ISSUED:          0 USEFUL:          0 USELESS:          0
cpu0->LLC AVERAGE MISS LATENCY: 321.2 cycles
cpu1->LLC TOTAL        ACCESS:     286114 HIT:     133118 MISS:     152996 MSHR_MERGE:          1
cpu1->LLC LOAD         ACCESS:     285917 HIT:     133118 MISS:     152799 MSHR_MERGE:          1
cpu1->LLC RFO          ACCESS:          0 HIT:          0 MISS:          0 MSHR_MERGE:          0
cpu1->LLC PREFETCH     ACCESS:          0 HIT:          0 MISS:          0 MSHR_MERGE:          0
cpu1->LLC WRITE        ACCESS:          0 HIT:          0 MISS:          0 MSHR_MERGE:          0
cpu1->LLC TRANSLATION  ACCESS:        197 HIT:          0 MISS:        197 MSHR_MERGE:          0
cpu1->LLC PREFETCH REQUESTED:          0 ISSUED:          0 USEFUL:          0 USELESS:          0
cpu1->LLC AVERAGE MISS LATENCY: 473.3 cycles
cpu2->LLC TOTAL        ACCESS:         54 HIT:         33 MISS:         21 MSHR_MERGE:          0
cpu2->LLC LOAD         ACCESS:         34 HIT:         33 MISS:          1 MSHR_MERGE:          0
cpu2->LLC RFO          ACCESS:          0 HIT:          0 MISS:          0 MSHR_MERGE:          0
cpu2->LLC PREFETCH     ACCESS:          0 HIT:          0 MISS:          0 MSHR_MERGE:          0
cpu2->LLC WRITE        ACCESS:          0 HIT:          0 MISS:          0 MSHR_MERGE:          0
cpu2->LLC TRANSLATION  ACCESS:         20 HIT:          0 MISS:         20 MSHR_MERGE:          0
cpu2->LLC PREFETCH REQUESTED:          0 ISSUED:          0 USEFUL:          0 USELESS:          0
cpu2->LLC AVERAGE MISS LATENCY: 3.448e+06 cycles
cpu3->LLC TOTAL        ACCESS:         54 HIT:          0 MISS:         54 MSHR_MERGE:          0
cpu3->LLC LOAD         ACCESS:         34 HIT:          0 MISS:         34 MSHR_MERGE:          0
cpu3->LLC RFO          ACCESS:          0 HIT:          0 MISS:          0 MSHR_MERGE:          0
cpu3->LLC PREFETCH     ACCESS:          0 HIT:          0 MISS:          0 MSHR_MERGE:          0
cpu3->LLC WRITE        ACCESS:          0 HIT:          0 MISS:          0 MSHR_MERGE:          0
cpu3->LLC TRANSLATION  ACCESS:         20 HIT:          0 MISS:         20 MSHR_MERGE:          0
cpu3->LLC PREFETCH REQUESTED:          0 ISSUED:          0 USEFUL:          0 USELESS:          0
cpu3->LLC AVERAGE MISS LATENCY: 1.341e+06 cycles
LLC COHERENCE INVALIDATIONS:      19997
LLC COHERENCE WRITE-HIT OTHER-SHARER EVENTS:      19997

Region of Interest Statistics

CPU 3 cumulative IPC: 4 instructions: 100000000 cycles: 25000000
CPU 3 Branch Prediction Accuracy: -% MPKI: 0 Average ROB Occupancy at Mispredict: -
Branch type MPKI
BRANCH_DIRECT_JUMP: 0
BRANCH_INDIRECT: 0
BRANCH_CONDITIONAL: 0
BRANCH_DIRECT_CALL: 0
BRANCH_INDIRECT_CALL: 0
BRANCH_RETURN: 0


CPU 2 cumulative IPC: 4 instructions: 100000000 cycles: 25000000
CPU 2 Branch Prediction Accuracy: -% MPKI: 0 Average ROB Occupancy at Mispredict: -
Branch type MPKI
BRANCH_DIRECT_JUMP: 0
BRANCH_INDIRECT: 0
BRANCH_CONDITIONAL: 0
BRANCH_DIRECT_CALL: 0
BRANCH_INDIRECT_CALL: 0
BRANCH_RETURN: 0


CPU 1 cumulative IPC: 2.056 instructions: 100000003 cycles: 48647946
CPU 1 Branch Prediction Accuracy: -% MPKI: 0 Average ROB Occupancy at Mispredict: -
Branch type MPKI
BRANCH_DIRECT_JUMP: 0
BRANCH_INDIRECT: 0
BRANCH_CONDITIONAL: 0
BRANCH_DIRECT_CALL: 0
BRANCH_INDIRECT_CALL: 0
BRANCH_RETURN: 0


CPU 0 cumulative IPC: 0.6388 instructions: 100000004 cycles: 156549335
CPU 0 Branch Prediction Accuracy: -% MPKI: 0 Average ROB Occupancy at Mispredict: -
Branch type MPKI
BRANCH_DIRECT_JUMP: 0
BRANCH_INDIRECT: 0
BRANCH_CONDITIONAL: 0
BRANCH_DIRECT_CALL: 0
BRANCH_INDIRECT_CALL: 0
BRANCH_RETURN: 0

cpu3->cpu3_STLB TOTAL        ACCESS:         18 HIT:          8 MISS:         10 MSHR_MERGE:          0
cpu3->cpu3_STLB LOAD         ACCESS:         18 HIT:          8 MISS:         10 MSHR_MERGE:          0
cpu3->cpu3_STLB RFO          ACCESS:          0 HIT:          0 MISS:          0 MSHR_MERGE:          0
cpu3->cpu3_STLB PREFETCH     ACCESS:          0 HIT:          0 MISS:          0 MSHR_MERGE:          0
cpu3->cpu3_STLB WRITE        ACCESS:          0 HIT:          0 MISS:          0 MSHR_MERGE:          0
cpu3->cpu3_STLB TRANSLATION  ACCESS:          0 HIT:          0 MISS:          0 MSHR_MERGE:          0
cpu3->cpu3_STLB PREFETCH REQUESTED:          0 ISSUED:          0 USEFUL:          0 USELESS:          0
cpu3->cpu3_STLB AVERAGE MISS LATENCY: 703 cycles
cpu3_STLB COHERENCE INVALIDATIONS:          0
cpu3_STLB COHERENCE WRITE-HIT OTHER-SHARER EVENTS:          0
cpu3->cpu3_L2C TOTAL        ACCESS:         58 HIT:          4 MISS:         54 MSHR_MERGE:          0
cpu3->cpu3_L2C LOAD         ACCESS:         38 HIT:          4 MISS:         34 MSHR_MERGE:          0
cpu3->cpu3_L2C RFO          ACCESS:          0 HIT:          0 MISS:          0 MSHR_MERGE:          0
cpu3->cpu3_L2C PREFETCH     ACCESS:          0 HIT:          0 MISS:          0 MSHR_MERGE:          0
cpu3->cpu3_L2C WRITE        ACCESS:          0 HIT:          0 MISS:          0 MSHR_MERGE:          0
cpu3->cpu3_L2C TRANSLATION  ACCESS:         20 HIT:          0 MISS:         20 MSHR_MERGE:          0
cpu3->cpu3_L2C PREFETCH REQUESTED:          0 ISSUED:          0 USEFUL:          0 USELESS:          0
cpu3->cpu3_L2C AVERAGE MISS LATENCY: 217.1 cycles
cpu3_L2C COHERENCE INVALIDATIONS:          0
cpu3_L2C COHERENCE WRITE-HIT OTHER-SHARER EVENTS:          0
cpu3->cpu3_L1I TOTAL        ACCESS:   97714209 HIT:   97714156 MISS:         53 MSHR_MERGE:         15
cpu3->cpu3_L1I LOAD         ACCESS:   97714209 HIT:   97714156 MISS:         53 MSHR_MERGE:         15
cpu3->cpu3_L1I RFO          ACCESS:          0 HIT:          0 MISS:          0 MSHR_MERGE:          0
cpu3->cpu3_L1I PREFETCH     ACCESS:          0 HIT:          0 MISS:          0 MSHR_MERGE:          0
cpu3->cpu3_L1I WRITE        ACCESS:          0 HIT:          0 MISS:          0 MSHR_MERGE:          0
cpu3->cpu3_L1I TRANSLATION  ACCESS:          0 HIT:          0 MISS:          0 MSHR_MERGE:          0
cpu3->cpu3_L1I PREFETCH REQUESTED:          0 ISSUED:          0 USEFUL:          0 USELESS:          0
cpu3->cpu3_L1I AVERAGE MISS LATENCY: 212.4 cycles
cpu3_L1I COHERENCE INVALIDATIONS:          0
cpu3_L1I COHERENCE WRITE-HIT OTHER-SHARER EVENTS:          0
cpu3->cpu3_L1D TOTAL        ACCESS:         20 HIT:          0 MISS:         20 MSHR_MERGE:          0
cpu3->cpu3_L1D LOAD         ACCESS:          0 HIT:          0 MISS:          0 MSHR_MERGE:          0
cpu3->cpu3_L1D RFO          ACCESS:          0 HIT:          0 MISS:          0 MSHR_MERGE:          0
cpu3->cpu3_L1D PREFETCH     ACCESS:          0 HIT:          0 MISS:          0 MSHR_MERGE:          0
cpu3->cpu3_L1D WRITE        ACCESS:          0 HIT:          0 MISS:          0 MSHR_MERGE:          0
cpu3->cpu3_L1D TRANSLATION  ACCESS:         20 HIT:          0 MISS:         20 MSHR_MERGE:          0
cpu3->cpu3_L1D PREFETCH REQUESTED:          0 ISSUED:          0 USEFUL:          0 USELESS:          0
cpu3->cpu3_L1D AVERAGE MISS LATENCY: 205.5 cycles
cpu3_L1D COHERENCE INVALIDATIONS:          0
cpu3_L1D COHERENCE WRITE-HIT OTHER-SHARER EVENTS:          0
cpu3->cpu3_ITLB TOTAL        ACCESS:   77168255 HIT:   77168224 MISS:         31 MSHR_MERGE:         13
cpu3->cpu3_ITLB LOAD         ACCESS:   77168255 HIT:   77168224 MISS:         31 MSHR_MERGE:         13
cpu3->cpu3_ITLB RFO          ACCESS:          0 HIT:          0 MISS:          0 MSHR_MERGE:          0
cpu3->cpu3_ITLB PREFETCH     ACCESS:          0 HIT:          0 MISS:          0 MSHR_MERGE:          0
cpu3->cpu3_ITLB WRITE        ACCESS:          0 HIT:          0 MISS:          0 MSHR_MERGE:          0
cpu3->cpu3_ITLB TRANSLATION  ACCESS:          0 HIT:          0 MISS:          0 MSHR_MERGE:          0
cpu3->cpu3_ITLB PREFETCH REQUESTED:          0 ISSUED:          0 USEFUL:          0 USELESS:          0
cpu3->cpu3_ITLB AVERAGE MISS LATENCY: 395.1 cycles
cpu3_ITLB COHERENCE INVALIDATIONS:          0
cpu3_ITLB COHERENCE WRITE-HIT OTHER-SHARER EVENTS:          0
cpu3_DTLB COHERENCE INVALIDATIONS:          0
cpu3_DTLB COHERENCE WRITE-HIT OTHER-SHARER EVENTS:          0
cpu2->cpu2_STLB TOTAL        ACCESS:         17 HIT:          7 MISS:         10 MSHR_MERGE:          0
cpu2->cpu2_STLB LOAD         ACCESS:         17 HIT:          7 MISS:         10 MSHR_MERGE:          0
cpu2->cpu2_STLB RFO          ACCESS:          0 HIT:          0 MISS:          0 MSHR_MERGE:          0
cpu2->cpu2_STLB PREFETCH     ACCESS:          0 HIT:          0 MISS:          0 MSHR_MERGE:          0
cpu2->cpu2_STLB WRITE        ACCESS:          0 HIT:          0 MISS:          0 MSHR_MERGE:          0
cpu2->cpu2_STLB TRANSLATION  ACCESS:          0 HIT:          0 MISS:          0 MSHR_MERGE:          0
cpu2->cpu2_STLB PREFETCH REQUESTED:          0 ISSUED:          0 USEFUL:          0 USELESS:          0
cpu2->cpu2_STLB AVERAGE MISS LATENCY: 603.4 cycles
cpu2_STLB COHERENCE INVALIDATIONS:          0
cpu2_STLB COHERENCE WRITE-HIT OTHER-SHARER EVENTS:          0
cpu2->cpu2_L2C TOTAL        ACCESS:         58 HIT:          4 MISS:         54 MSHR_MERGE:          0
cpu2->cpu2_L2C LOAD         ACCESS:         38 HIT:          4 MISS:         34 MSHR_MERGE:          0
cpu2->cpu2_L2C RFO          ACCESS:          0 HIT:          0 MISS:          0 MSHR_MERGE:          0
cpu2->cpu2_L2C PREFETCH     ACCESS:          0 HIT:          0 MISS:          0 MSHR_MERGE:          0
cpu2->cpu2_L2C WRITE        ACCESS:          0 HIT:          0 MISS:          0 MSHR_MERGE:          0
cpu2->cpu2_L2C TRANSLATION  ACCESS:         20 HIT:          0 MISS:         20 MSHR_MERGE:          0
cpu2->cpu2_L2C PREFETCH REQUESTED:          0 ISSUED:          0 USEFUL:          0 USELESS:          0
cpu2->cpu2_L2C AVERAGE MISS LATENCY: 81.59 cycles
cpu2_L2C COHERENCE INVALIDATIONS:          0
cpu2_L2C COHERENCE WRITE-HIT OTHER-SHARER EVENTS:          0
cpu2->cpu2_L1I TOTAL        ACCESS:  100560152 HIT:  100560102 MISS:         50 MSHR_MERGE:         12
cpu2->cpu2_L1I LOAD         ACCESS:  100560152 HIT:  100560102 MISS:         50 MSHR_MERGE:         12
cpu2->cpu2_L1I RFO          ACCESS:          0 HIT:          0 MISS:          0 MSHR_MERGE:          0
cpu2->cpu2_L1I PREFETCH     ACCESS:          0 HIT:          0 MISS:          0 MSHR_MERGE:          0
cpu2->cpu2_L1I WRITE        ACCESS:          0 HIT:          0 MISS:          0 MSHR_MERGE:          0
cpu2->cpu2_L1I TRANSLATION  ACCESS:          0 HIT:          0 MISS:          0 MSHR_MERGE:          0
cpu2->cpu2_L1I PREFETCH REQUESTED:          0 ISSUED:          0 USEFUL:          0 USELESS:          0
cpu2->cpu2_L1I AVERAGE MISS LATENCY: 25.05 cycles
cpu2_L1I COHERENCE INVALIDATIONS:          0
cpu2_L1I COHERENCE WRITE-HIT OTHER-SHARER EVENTS:          0
cpu2->cpu2_L1D TOTAL        ACCESS:         20 HIT:          0 MISS:         20 MSHR_MERGE:          0
cpu2->cpu2_L1D LOAD         ACCESS:          0 HIT:          0 MISS:          0 MSHR_MERGE:          0
cpu2->cpu2_L1D RFO          ACCESS:          0 HIT:          0 MISS:          0 MSHR_MERGE:          0
cpu2->cpu2_L1D PREFETCH     ACCESS:          0 HIT:          0 MISS:          0 MSHR_MERGE:          0
cpu2->cpu2_L1D WRITE        ACCESS:          0 HIT:          0 MISS:          0 MSHR_MERGE:          0
cpu2->cpu2_L1D TRANSLATION  ACCESS:         20 HIT:          0 MISS:         20 MSHR_MERGE:          0
cpu2->cpu2_L1D PREFETCH REQUESTED:          0 ISSUED:          0 USEFUL:          0 USELESS:          0
cpu2->cpu2_L1D AVERAGE MISS LATENCY: 195.7 cycles
cpu2_L1D COHERENCE INVALIDATIONS:          0
cpu2_L1D COHERENCE WRITE-HIT OTHER-SHARER EVENTS:          0
cpu2->cpu2_ITLB TOTAL        ACCESS:   77614050 HIT:   77614023 MISS:         27 MSHR_MERGE:         10
cpu2->cpu2_ITLB LOAD         ACCESS:   77614050 HIT:   77614023 MISS:         27 MSHR_MERGE:         10
cpu2->cpu2_ITLB RFO          ACCESS:          0 HIT:          0 MISS:          0 MSHR_MERGE:          0
cpu2->cpu2_ITLB PREFETCH     ACCESS:          0 HIT:          0 MISS:          0 MSHR_MERGE:          0
cpu2->cpu2_ITLB WRITE        ACCESS:          0 HIT:          0 MISS:          0 MSHR_MERGE:          0
cpu2->cpu2_ITLB TRANSLATION  ACCESS:          0 HIT:          0 MISS:          0 MSHR_MERGE:          0
cpu2->cpu2_ITLB PREFETCH REQUESTED:          0 ISSUED:          0 USEFUL:          0 USELESS:          0
cpu2->cpu2_ITLB AVERAGE MISS LATENCY: 359.5 cycles
cpu2_ITLB COHERENCE INVALIDATIONS:          0
cpu2_ITLB COHERENCE WRITE-HIT OTHER-SHARER EVENTS:          0
cpu2_DTLB COHERENCE INVALIDATIONS:          0
cpu2_DTLB COHERENCE WRITE-HIT OTHER-SHARER EVENTS:          0
cpu1->cpu1_STLB TOTAL        ACCESS:    1119586 HIT:    1119418 MISS:        168 MSHR_MERGE:          0
cpu1->cpu1_STLB LOAD         ACCESS:    1119586 HIT:    1119418 MISS:        168 MSHR_MERGE:          0
cpu1->cpu1_STLB RFO          ACCESS:          0 HIT:          0 MISS:          0 MSHR_MERGE:          0
cpu1->cpu1_STLB PREFETCH     ACCESS:          0 HIT:          0 MISS:          0 MSHR_MERGE:          0
cpu1->cpu1_STLB WRITE        ACCESS:          0 HIT:          0 MISS:          0 MSHR_MERGE:          0
cpu1->cpu1_STLB TRANSLATION  ACCESS:          0 HIT:          0 MISS:          0 MSHR_MERGE:          0
cpu1->cpu1_STLB PREFETCH REQUESTED:          0 ISSUED:          0 USEFUL:          0 USELESS:          0
cpu1->cpu1_STLB AVERAGE MISS LATENCY: 644.5 cycles
cpu1_STLB COHERENCE INVALIDATIONS:          0
cpu1_STLB COHERENCE WRITE-HIT OTHER-SHARER EVENTS:          0
cpu1->cpu1_L2C TOTAL        ACCESS:    3335452 HIT:    3049338 MISS:     286114 MSHR_MERGE:          0
cpu1->cpu1_L2C LOAD         ACCESS:    3335255 HIT:    3049338 MISS:     285917 MSHR_MERGE:          0
cpu1->cpu1_L2C RFO          ACCESS:          0 HIT:          0 MISS:          0 MSHR_MERGE:          0
cpu1->cpu1_L2C PREFETCH     ACCESS:          0 HIT:          0 MISS:          0 MSHR_MERGE:          0
cpu1->cpu1_L2C WRITE        ACCESS:          0 HIT:          0 MISS:          0 MSHR_MERGE:          0
cpu1->cpu1_L2C TRANSLATION  ACCESS:        197 HIT:          0 MISS:        197 MSHR_MERGE:          0
cpu1->cpu1_L2C PREFETCH REQUESTED:          0 ISSUED:          0 USEFUL:          0 USELESS:          0
cpu1->cpu1_L2C AVERAGE MISS LATENCY: 112.2 cycles
cpu1_L2C COHERENCE INVALIDATIONS:          0
cpu1_L2C COHERENCE WRITE-HIT OTHER-SHARER EVENTS:          0
cpu1->cpu1_L1I TOTAL        ACCESS:   62915394 HIT:   59524437 MISS:    3390957 MSHR_MERGE:      55702
cpu1->cpu1_L1I LOAD         ACCESS:   62915394 HIT:   59524437 MISS:    3390957 MSHR_MERGE:      55702
cpu1->cpu1_L1I RFO          ACCESS:          0 HIT:          0 MISS:          0 MSHR_MERGE:          0
cpu1->cpu1_L1I PREFETCH     ACCESS:          0 HIT:          0 MISS:          0 MSHR_MERGE:          0
cpu1->cpu1_L1I WRITE        ACCESS:          0 HIT:          0 MISS:          0 MSHR_MERGE:          0
cpu1->cpu1_L1I TRANSLATION  ACCESS:          0 HIT:          0 MISS:          0 MSHR_MERGE:          0
cpu1->cpu1_L1I PREFETCH REQUESTED:          0 ISSUED:          0 USEFUL:          0 USELESS:          0
cpu1->cpu1_L1I AVERAGE MISS LATENCY: 16.87 cycles
cpu1_L1I COHERENCE INVALIDATIONS:          0
cpu1_L1I COHERENCE WRITE-HIT OTHER-SHARER EVENTS:          0
cpu1->cpu1_L1D TOTAL        ACCESS:        339 HIT:        142 MISS:        197 MSHR_MERGE:          0
cpu1->cpu1_L1D LOAD         ACCESS:          0 HIT:          0 MISS:          0 MSHR_MERGE:          0
cpu1->cpu1_L1D RFO          ACCESS:          0 HIT:          0 MISS:          0 MSHR_MERGE:          0
cpu1->cpu1_L1D PREFETCH     ACCESS:          0 HIT:          0 MISS:          0 MSHR_MERGE:          0
cpu1->cpu1_L1D WRITE        ACCESS:          0 HIT:          0 MISS:          0 MSHR_MERGE:          0
cpu1->cpu1_L1D TRANSLATION  ACCESS:        339 HIT:        142 MISS:        197 MSHR_MERGE:          0
cpu1->cpu1_L1D PREFETCH REQUESTED:          0 ISSUED:          0 USEFUL:          0 USELESS:          0
cpu1->cpu1_L1D AVERAGE MISS LATENCY: 202 cycles
cpu1_L1D COHERENCE INVALIDATIONS:          0
cpu1_L1D COHERENCE WRITE-HIT OTHER-SHARER EVENTS:          0
cpu1->cpu1_ITLB TOTAL        ACCESS:   60474942 HIT:   59295136 MISS:    1179806 MSHR_MERGE:      60220
cpu1->cpu1_ITLB LOAD         ACCESS:   60474942 HIT:   59295136 MISS:    1179806 MSHR_MERGE:      60220
cpu1->cpu1_ITLB RFO          ACCESS:          0 HIT:          0 MISS:          0 MSHR_MERGE:          0
cpu1->cpu1_ITLB PREFETCH     ACCESS:          0 HIT:          0 MISS:          0 MSHR_MERGE:          0
cpu1->cpu1_ITLB WRITE        ACCESS:          0 HIT:          0 MISS:          0 MSHR_MERGE:          0
cpu1->cpu1_ITLB TRANSLATION  ACCESS:          0 HIT:          0 MISS:          0 MSHR_MERGE:          0
cpu1->cpu1_ITLB PREFETCH REQUESTED:          0 ISSUED:          0 USEFUL:          0 USELESS:          0
cpu1->cpu1_ITLB AVERAGE MISS LATENCY: 4.097 cycles
cpu1_ITLB COHERENCE INVALIDATIONS:          0
cpu1_ITLB COHERENCE WRITE-HIT OTHER-SHARER EVENTS:          0
cpu1_DTLB COHERENCE INVALIDATIONS:          0
cpu1_DTLB COHERENCE WRITE-HIT OTHER-SHARER EVENTS:          0
cpu0->cpu0_STLB TOTAL        ACCESS:    3018229 HIT:    3005293 MISS:      12936 MSHR_MERGE:          0
cpu0->cpu0_STLB LOAD         ACCESS:    3018229 HIT:    3005293 MISS:      12936 MSHR_MERGE:          0
cpu0->cpu0_STLB RFO          ACCESS:          0 HIT:          0 MISS:          0 MSHR_MERGE:          0
cpu0->cpu0_STLB PREFETCH     ACCESS:          0 HIT:          0 MISS:          0 MSHR_MERGE:          0
cpu0->cpu0_STLB WRITE        ACCESS:          0 HIT:          0 MISS:          0 MSHR_MERGE:          0
cpu0->cpu0_STLB TRANSLATION  ACCESS:          0 HIT:          0 MISS:          0 MSHR_MERGE:          0
cpu0->cpu0_STLB PREFETCH REQUESTED:          0 ISSUED:          0 USEFUL:          0 USELESS:          0
cpu0->cpu0_STLB AVERAGE MISS LATENCY: 201.3 cycles
cpu0_STLB COHERENCE INVALIDATIONS:          0
cpu0_STLB COHERENCE WRITE-HIT OTHER-SHARER EVENTS:          0
cpu0->cpu0_L2C TOTAL        ACCESS:    4709810 HIT:    4298817 MISS:     410993 MSHR_MERGE:          0
cpu0->cpu0_L2C LOAD         ACCESS:    3758866 HIT:    3413722 MISS:     345144 MSHR_MERGE:          0
cpu0->cpu0_L2C RFO          ACCESS:     343585 HIT:     291713 MISS:      51872 MSHR_MERGE:          0
cpu0->cpu0_L2C PREFETCH     ACCESS:          0 HIT:          0 MISS:          0 MSHR_MERGE:          0
cpu0->cpu0_L2C WRITE        ACCESS:     579164 HIT:     578886 MISS:        278 MSHR_MERGE:          0
cpu0->cpu0_L2C TRANSLATION  ACCESS:      28195 HIT:      14496 MISS:      13699 MSHR_MERGE:          0
cpu0->cpu0_L2C PREFETCH REQUESTED:          0 ISSUED:          0 USEFUL:          0 USELESS:          0
cpu0->cpu0_L2C AVERAGE MISS LATENCY: 124.4 cycles
cpu0_L2C COHERENCE INVALIDATIONS:          0
cpu0_L2C COHERENCE WRITE-HIT OTHER-SHARER EVENTS:          0
cpu0->cpu0_L1I TOTAL        ACCESS:   25283600 HIT:   25283580 MISS:         20 MSHR_MERGE:          7
cpu0->cpu0_L1I LOAD         ACCESS:   25283600 HIT:   25283580 MISS:         20 MSHR_MERGE:          7
cpu0->cpu0_L1I RFO          ACCESS:          0 HIT:          0 MISS:          0 MSHR_MERGE:          0
cpu0->cpu0_L1I PREFETCH     ACCESS:          0 HIT:          0 MISS:          0 MSHR_MERGE:          0
cpu0->cpu0_L1I WRITE        ACCESS:          0 HIT:          0 MISS:          0 MSHR_MERGE:          0
cpu0->cpu0_L1I TRANSLATION  ACCESS:          0 HIT:          0 MISS:          0 MSHR_MERGE:          0
cpu0->cpu0_L1I PREFETCH REQUESTED:          0 ISSUED:          0 USEFUL:          0 USELESS:          0
cpu0->cpu0_L1I AVERAGE MISS LATENCY: 170.7 cycles
cpu0_L1I COHERENCE INVALIDATIONS:          0
cpu0_L1I COHERENCE WRITE-HIT OTHER-SHARER EVENTS:          0
cpu0->cpu0_L1D TOTAL        ACCESS:   63890103 HIT:   59677998 MISS:    4212105 MSHR_MERGE:      80969
cpu0->cpu0_L1D LOAD         ACCESS:   16844010 HIT:   13074639 MISS:    3769371 MSHR_MERGE:      10428
cpu0->cpu0_L1D RFO          ACCESS:          0 HIT:          0 MISS:          0 MSHR_MERGE:          0
cpu0->cpu0_L1D PREFETCH     ACCESS:          0 HIT:          0 MISS:          0 MSHR_MERGE:          0
cpu0->cpu0_L1D WRITE        ACCESS:   47014739 HIT:   46600205 MISS:     414534 MSHR_MERGE:      70536
cpu0->cpu0_L1D TRANSLATION  ACCESS:      31354 HIT:       3154 MISS:      28200 MSHR_MERGE:          5
cpu0->cpu0_L1D PREFETCH REQUESTED:          0 ISSUED:          0 USEFUL:          0 USELESS:          0
cpu0->cpu0_L1D AVERAGE MISS LATENCY: 19.68 cycles
cpu0_L1D COHERENCE INVALIDATIONS:          0
cpu0_L1D COHERENCE WRITE-HIT OTHER-SHARER EVENTS:          0
cpu0->cpu0_ITLB TOTAL        ACCESS:   22791147 HIT:   22791147 MISS:          0 MSHR_MERGE:          0
cpu0->cpu0_ITLB LOAD         ACCESS:   22791147 HIT:   22791147 MISS:          0 MSHR_MERGE:          0
cpu0->cpu0_ITLB RFO          ACCESS:          0 HIT:          0 MISS:          0 MSHR_MERGE:          0
cpu0->cpu0_ITLB PREFETCH     ACCESS:          0 HIT:          0 MISS:          0 MSHR_MERGE:          0
cpu0->cpu0_ITLB WRITE        ACCESS:          0 HIT:          0 MISS:          0 MSHR_MERGE:          0
cpu0->cpu0_ITLB TRANSLATION  ACCESS:          0 HIT:          0 MISS:          0 MSHR_MERGE:          0
cpu0->cpu0_ITLB PREFETCH REQUESTED:          0 ISSUED:          0 USEFUL:          0 USELESS:          0
cpu0->cpu0_ITLB AVERAGE MISS LATENCY: - cycles
cpu0_ITLB COHERENCE INVALIDATIONS:          0
cpu0_ITLB COHERENCE WRITE-HIT OTHER-SHARER EVENTS:          0
cpu0->cpu0_DTLB TOTAL        ACCESS:   62050817 HIT:   58862282 MISS:    3188535 MSHR_MERGE:     170306
cpu0->cpu0_DTLB LOAD         ACCESS:   62050817 HIT:   58862282 MISS:    3188535 MSHR_MERGE:     170306
cpu0->cpu0_DTLB RFO          ACCESS:          0 HIT:          0 MISS:          0 MSHR_MERGE:          0
cpu0->cpu0_DTLB PREFETCH     ACCESS:          0 HIT:          0 MISS:          0 MSHR_MERGE:          0
cpu0->cpu0_DTLB WRITE        ACCESS:          0 HIT:          0 MISS:          0 MSHR_MERGE:          0
cpu0->cpu0_DTLB TRANSLATION  ACCESS:          0 HIT:          0 MISS:          0 MSHR_MERGE:          0
cpu0->cpu0_DTLB PREFETCH REQUESTED:          0 ISSUED:          0 USEFUL:          0 USELESS:          0
cpu0->cpu0_DTLB AVERAGE MISS LATENCY: 4.867 cycles
cpu0_DTLB COHERENCE INVALIDATIONS:          0
cpu0_DTLB COHERENCE WRITE-HIT OTHER-SHARER EVENTS:          0
cpu0->LLC TOTAL        ACCESS:     515511 HIT:     290077 MISS:     225434 MSHR_MERGE:          0
cpu0->LLC LOAD         ACCESS:     345144 HIT:     163427 MISS:     181717 MSHR_MERGE:          0
cpu0->LLC RFO          ACCESS:      51872 HIT:      18675 MISS:      33197 MSHR_MERGE:          0
cpu0->LLC PREFETCH     ACCESS:          0 HIT:          0 MISS:          0 MSHR_MERGE:          0
cpu0->LLC WRITE        ACCESS:     104796 HIT:     102664 MISS:       2132 MSHR_MERGE:          0
cpu0->LLC TRANSLATION  ACCESS:      13699 HIT:       5311 MISS:       8388 MSHR_MERGE:          0
cpu0->LLC PREFETCH REQUESTED:          0 ISSUED:          0 USEFUL:          0 USELESS:          0
cpu0->LLC AVERAGE MISS LATENCY: 321.2 cycles
cpu1->LLC TOTAL        ACCESS:     286114 HIT:     133118 MISS:     152996 MSHR_MERGE:          1
cpu1->LLC LOAD         ACCESS:     285917 HIT:     133118 MISS:     152799 MSHR_MERGE:          1
cpu1->LLC RFO          ACCESS:          0 HIT:          0 MISS:          0 MSHR_MERGE:          0
cpu1->LLC PREFETCH     ACCESS:          0 HIT:          0 MISS:          0 MSHR_MERGE:          0
cpu1->LLC WRITE        ACCESS:          0 HIT:          0 MISS:          0 MSHR_MERGE:          0
cpu1->LLC TRANSLATION  ACCESS:        197 HIT:          0 MISS:        197 MSHR_MERGE:          0
cpu1->LLC PREFETCH REQUESTED:          0 ISSUED:          0 USEFUL:          0 USELESS:          0
cpu1->LLC AVERAGE MISS LATENCY: 473.3 cycles
cpu2->LLC TOTAL        ACCESS:         54 HIT:         33 MISS:         21 MSHR_MERGE:          0
cpu2->LLC LOAD         ACCESS:         34 HIT:         33 MISS:          1 MSHR_MERGE:          0
cpu2->LLC RFO          ACCESS:          0 HIT:          0 MISS:          0 MSHR_MERGE:          0
cpu2->LLC PREFETCH     ACCESS:          0 HIT:          0 MISS:          0 MSHR_MERGE:          0
cpu2->LLC WRITE        ACCESS:          0 HIT:          0 MISS:          0 MSHR_MERGE:          0
cpu2->LLC TRANSLATION  ACCESS:         20 HIT:          0 MISS:         20 MSHR_MERGE:          0
cpu2->LLC PREFETCH REQUESTED:          0 ISSUED:          0 USEFUL:          0 USELESS:          0
cpu2->LLC AVERAGE MISS LATENCY: 3.448e+06 cycles
cpu3->LLC TOTAL        ACCESS:         54 HIT:          0 MISS:         54 MSHR_MERGE:          0
cpu3->LLC LOAD         ACCESS:         34 HIT:          0 MISS:         34 MSHR_MERGE:          0
cpu3->LLC RFO          ACCESS:          0 HIT:          0 MISS:          0 MSHR_MERGE:          0
cpu3->LLC PREFETCH     ACCESS:          0 HIT:          0 MISS:          0 MSHR_MERGE:          0
cpu3->LLC WRITE        ACCESS:          0 HIT:          0 MISS:          0 MSHR_MERGE:          0
cpu3->LLC TRANSLATION  ACCESS:         20 HIT:          0 MISS:         20 MSHR_MERGE:          0
cpu3->LLC PREFETCH REQUESTED:          0 ISSUED:          0 USEFUL:          0 USELESS:          0
cpu3->LLC AVERAGE MISS LATENCY: 1.341e+06 cycles
LLC COHERENCE INVALIDATIONS:      19997
LLC COHERENCE WRITE-HIT OTHER-SHARER EVENTS:      19997

DRAM Statistics

Channel 0 RQ ROW_BUFFER_HIT:       1264
  ROW_BUFFER_MISS:     374993
  AVG DBUS CONGESTED CYCLE: 12.87
Channel 0 WQ ROW_BUFFER_HIT:      13624
  ROW_BUFFER_MISS:      55799
  FULL:          0
Channel 0 REFRESHES ISSUED:      13045

VMEM ALIASED FILLS (cross-CPU shared-page hits): 3514
