[VMEM] WARNING: physical memory size is smaller than virtual memory size.

*** ChampSim Multicore Out-of-Order Simulator ***
Warmup Instructions: 50000000
Simulation Instructions: 100000000
Number of CPUs: 4
Page size: 4096

Off-chip DRAM Size: 16 GiB Channels: 1 Width: 64-bit Data Rate: 3205 MT/s
Heartbeat CPU 2 instructions: 10000001 cycles: 2509382 heartbeat IPC: 3.985 cumulative IPC: 3.985 (Simulation time: 00 hr 03 min 44 sec)
Heartbeat CPU 3 instructions: 10000002 cycles: 2509495 heartbeat IPC: 3.985 cumulative IPC: 3.985 (Simulation time: 00 hr 03 min 44 sec)
Heartbeat CPU 0 instructions: 10000002 cycles: 3014764 heartbeat IPC: 3.317 cumulative IPC: 3.317 (Simulation time: 00 hr 04 min 29 sec)
Heartbeat CPU 1 instructions: 10000002 cycles: 4159415 heartbeat IPC: 2.404 cumulative IPC: 2.404 (Simulation time: 00 hr 05 min 52 sec)
Heartbeat CPU 2 instructions: 20000001 cycles: 5009382 heartbeat IPC: 4 cumulative IPC: 3.993 (Simulation time: 00 hr 07 min 00 sec)
Heartbeat CPU 3 instructions: 20000002 cycles: 5009495 heartbeat IPC: 4 cumulative IPC: 3.992 (Simulation time: 00 hr 07 min 00 sec)
Heartbeat CPU 2 instructions: 30000001 cycles: 7509382 heartbeat IPC: 4 cumulative IPC: 3.995 (Simulation time: 00 hr 10 min 26 sec)
Heartbeat CPU 3 instructions: 30000002 cycles: 7509495 heartbeat IPC: 4 cumulative IPC: 3.995 (Simulation time: 00 hr 10 min 26 sec)
Heartbeat CPU 1 instructions: 20000004 cycles: 7836935 heartbeat IPC: 2.719 cumulative IPC: 2.552 (Simulation time: 00 hr 10 min 54 sec)
Heartbeat CPU 2 instructions: 40000001 cycles: 10009382 heartbeat IPC: 4 cumulative IPC: 3.996 (Simulation time: 00 hr 13 min 53 sec)
Heartbeat CPU 3 instructions: 40000002 cycles: 10009495 heartbeat IPC: 4 cumulative IPC: 3.996 (Simulation time: 00 hr 13 min 53 sec)
Heartbeat CPU 1 instructions: 30000005 cycles: 11536882 heartbeat IPC: 2.703 cumulative IPC: 2.6 (Simulation time: 00 hr 16 min 01 sec)
Heartbeat CPU 2 instructions: 50000001 cycles: 12509382 heartbeat IPC: 4 cumulative IPC: 3.997 (Simulation time: 00 hr 17 min 16 sec)
Warmup finished CPU 2 instructions: 50000001 cycles: 12509382 cumulative IPC: 3.997 (Simulation time: 00 hr 17 min 16 sec)
Heartbeat CPU 3 instructions: 50000002 cycles: 12509495 heartbeat IPC: 4 cumulative IPC: 3.997 (Simulation time: 00 hr 17 min 16 sec)
Warmup finished CPU 3 instructions: 50000002 cycles: 12509495 cumulative IPC: 3.997 (Simulation time: 00 hr 17 min 16 sec)
Heartbeat CPU 0 instructions: 20000005 cycles: 14014511 heartbeat IPC: 0.9091 cumulative IPC: 1.427 (Simulation time: 00 hr 19 min 14 sec)
Heartbeat CPU 2 instructions: 60000001 cycles: 15009382 heartbeat IPC: 4 cumulative IPC: 3.997 (Simulation time: 00 hr 20 min 32 sec)
Heartbeat CPU 3 instructions: 60000002 cycles: 15009495 heartbeat IPC: 4 cumulative IPC: 3.997 (Simulation time: 00 hr 20 min 32 sec)
Heartbeat CPU 1 instructions: 40000006 cycles: 15234279 heartbeat IPC: 2.705 cumulative IPC: 2.626 (Simulation time: 00 hr 20 min 54 sec)
Heartbeat CPU 2 instructions: 70000001 cycles: 17509382 heartbeat IPC: 4 cumulative IPC: 3.998 (Simulation time: 00 hr 23 min 52 sec)
Heartbeat CPU 3 instructions: 70000002 cycles: 17509495 heartbeat IPC: 4 cumulative IPC: 3.998 (Simulation time: 00 hr 23 min 52 sec)
Warmup finished CPU 1 instructions: 50000003 cycles: 18953252 cumulative IPC: 2.638 (Simulation time: 00 hr 26 min 07 sec)
Heartbeat CPU 1 instructions: 50000007 cycles: 18953253 heartbeat IPC: 2.689 cumulative IPC: 2.638 (Simulation time: 00 hr 26 min 07 sec)
Heartbeat CPU 2 instructions: 80000001 cycles: 20009382 heartbeat IPC: 4 cumulative IPC: 3.998 (Simulation time: 00 hr 27 min 38 sec)
Heartbeat CPU 3 instructions: 80000002 cycles: 20009495 heartbeat IPC: 4 cumulative IPC: 3.998 (Simulation time: 00 hr 27 min 38 sec)
Heartbeat CPU 2 instructions: 90000001 cycles: 22509382 heartbeat IPC: 4 cumulative IPC: 3.998 (Simulation time: 00 hr 30 min 40 sec)
Heartbeat CPU 3 instructions: 90000002 cycles: 22509495 heartbeat IPC: 4 cumulative IPC: 3.998 (Simulation time: 00 hr 30 min 40 sec)
Heartbeat CPU 1 instructions: 60000010 cycles: 22576712 heartbeat IPC: 2.76 cumulative IPC: 2.658 (Simulation time: 00 hr 30 min 44 sec)
Heartbeat CPU 2 instructions: 100000001 cycles: 25009382 heartbeat IPC: 4 cumulative IPC: 3.998 (Simulation time: 00 hr 34 min 14 sec)
Heartbeat CPU 3 instructions: 100000002 cycles: 25009495 heartbeat IPC: 4 cumulative IPC: 3.998 (Simulation time: 00 hr 34 min 14 sec)
Heartbeat CPU 1 instructions: 70000012 cycles: 26272759 heartbeat IPC: 2.706 cumulative IPC: 2.664 (Simulation time: 00 hr 36 min 05 sec)
Heartbeat CPU 2 instructions: 110000001 cycles: 27509382 heartbeat IPC: 4 cumulative IPC: 3.999 (Simulation time: 00 hr 37 min 38 sec)
Heartbeat CPU 3 instructions: 110000002 cycles: 27509495 heartbeat IPC: 4 cumulative IPC: 3.999 (Simulation time: 00 hr 37 min 38 sec)
Heartbeat CPU 0 instructions: 30000005 cycles: 29195819 heartbeat IPC: 0.6587 cumulative IPC: 1.028 (Simulation time: 00 hr 39 min 44 sec)
Heartbeat CPU 1 instructions: 80000012 cycles: 29962158 heartbeat IPC: 2.71 cumulative IPC: 2.67 (Simulation time: 00 hr 40 min 37 sec)
Heartbeat CPU 2 instructions: 120000001 cycles: 30009382 heartbeat IPC: 4 cumulative IPC: 3.999 (Simulation time: 00 hr 40 min 41 sec)
Heartbeat CPU 3 instructions: 120000002 cycles: 30009495 heartbeat IPC: 4 cumulative IPC: 3.999 (Simulation time: 00 hr 40 min 41 sec)
Heartbeat CPU 2 instructions: 130000001 cycles: 32509382 heartbeat IPC: 4 cumulative IPC: 3.999 (Simulation time: 00 hr 44 min 11 sec)
Heartbeat CPU 3 instructions: 130000002 cycles: 32509495 heartbeat IPC: 4 cumulative IPC: 3.999 (Simulation time: 00 hr 44 min 11 sec)
Heartbeat CPU 1 instructions: 90000015 cycles: 33625838 heartbeat IPC: 2.729 cumulative IPC: 2.677 (Simulation time: 00 hr 45 min 43 sec)
Heartbeat CPU 2 instructions: 140000001 cycles: 35009382 heartbeat IPC: 4 cumulative IPC: 3.999 (Simulation time: 00 hr 47 min 38 sec)
Heartbeat CPU 3 instructions: 140000002 cycles: 35009495 heartbeat IPC: 4 cumulative IPC: 3.999 (Simulation time: 00 hr 47 min 38 sec)
Heartbeat CPU 1 instructions: 100000016 cycles: 37301643 heartbeat IPC: 2.72 cumulative IPC: 2.681 (Simulation time: 00 hr 50 min 27 sec)
Heartbeat CPU 2 instructions: 150000001 cycles: 37509382 heartbeat IPC: 4 cumulative IPC: 3.999 (Simulation time: 00 hr 50 min 41 sec)
Heartbeat CPU 3 instructions: 150000002 cycles: 37509495 heartbeat IPC: 4 cumulative IPC: 3.999 (Simulation time: 00 hr 50 min 42 sec)
Heartbeat CPU 2 instructions: 160000001 cycles: 40009382 heartbeat IPC: 4 cumulative IPC: 3.999 (Simulation time: 00 hr 53 min 41 sec)
Heartbeat CPU 3 instructions: 160000002 cycles: 40009495 heartbeat IPC: 4 cumulative IPC: 3.999 (Simulation time: 00 hr 53 min 41 sec)
Heartbeat CPU 1 instructions: 110000016 cycles: 40974448 heartbeat IPC: 2.723 cumulative IPC: 2.685 (Simulation time: 00 hr 54 min 55 sec)
Heartbeat CPU 2 instructions: 170000001 cycles: 42509382 heartbeat IPC: 4 cumulative IPC: 3.999 (Simulation time: 00 hr 56 min 44 sec)
Heartbeat CPU 3 instructions: 170000002 cycles: 42509495 heartbeat IPC: 4 cumulative IPC: 3.999 (Simulation time: 00 hr 56 min 44 sec)
Heartbeat CPU 0 instructions: 40000005 cycles: 44683532 heartbeat IPC: 0.6457 cumulative IPC: 0.8952 (Simulation time: 00 hr 59 min 40 sec)
Heartbeat CPU 1 instructions: 120000018 cycles: 44704972 heartbeat IPC: 2.681 cumulative IPC: 2.684 (Simulation time: 00 hr 59 min 42 sec)
Heartbeat CPU 2 instructions: 180000001 cycles: 45009382 heartbeat IPC: 4 cumulative IPC: 3.999 (Simulation time: 01 hr 00 min 02 sec)
Heartbeat CPU 3 instructions: 180000002 cycles: 45009495 heartbeat IPC: 4 cumulative IPC: 3.999 (Simulation time: 01 hr 00 min 02 sec)
Heartbeat CPU 2 instructions: 190000001 cycles: 47509382 heartbeat IPC: 4 cumulative IPC: 3.999 (Simulation time: 01 hr 03 min 12 sec)
Heartbeat CPU 3 instructions: 190000002 cycles: 47509495 heartbeat IPC: 4 cumulative IPC: 3.999 (Simulation time: 01 hr 03 min 12 sec)
Heartbeat CPU 1 instructions: 130000020 cycles: 48398803 heartbeat IPC: 2.707 cumulative IPC: 2.686 (Simulation time: 01 hr 04 min 31 sec)
Heartbeat CPU 2 instructions: 200000001 cycles: 50009382 heartbeat IPC: 4 cumulative IPC: 3.999 (Simulation time: 01 hr 06 min 50 sec)
Heartbeat CPU 3 instructions: 200000002 cycles: 50009495 heartbeat IPC: 4 cumulative IPC: 3.999 (Simulation time: 01 hr 06 min 50 sec)
Heartbeat CPU 1 instructions: 140000023 cycles: 51971266 heartbeat IPC: 2.799 cumulative IPC: 2.694 (Simulation time: 01 hr 09 min 18 sec)
Heartbeat CPU 2 instructions: 210000001 cycles: 52509382 heartbeat IPC: 4 cumulative IPC: 3.999 (Simulation time: 01 hr 09 min 56 sec)
Heartbeat CPU 3 instructions: 210000002 cycles: 52509495 heartbeat IPC: 4 cumulative IPC: 3.999 (Simulation time: 01 hr 09 min 56 sec)
Heartbeat CPU 2 instructions: 220000001 cycles: 55009382 heartbeat IPC: 4 cumulative IPC: 3.999 (Simulation time: 01 hr 13 min 31 sec)
Heartbeat CPU 3 instructions: 220000002 cycles: 55009495 heartbeat IPC: 4 cumulative IPC: 3.999 (Simulation time: 01 hr 13 min 31 sec)
Heartbeat CPU 1 instructions: 150000023 cycles: 55931202 heartbeat IPC: 2.525 cumulative IPC: 2.682 (Simulation time: 01 hr 14 min 56 sec)
Heartbeat CPU 2 instructions: 230000001 cycles: 57509382 heartbeat IPC: 4 cumulative IPC: 3.999 (Simulation time: 01 hr 16 min 51 sec)
Heartbeat CPU 3 instructions: 230000002 cycles: 57509495 heartbeat IPC: 4 cumulative IPC: 3.999 (Simulation time: 01 hr 16 min 51 sec)
Heartbeat CPU 1 instructions: 160000023 cycles: 59767631 heartbeat IPC: 2.607 cumulative IPC: 2.677 (Simulation time: 01 hr 20 min 31 sec)
Heartbeat CPU 2 instructions: 240000001 cycles: 60009382 heartbeat IPC: 4 cumulative IPC: 3.999 (Simulation time: 01 hr 20 min 48 sec)
Heartbeat CPU 3 instructions: 240000002 cycles: 60009495 heartbeat IPC: 4 cumulative IPC: 3.999 (Simulation time: 01 hr 20 min 48 sec)
Warmup finished CPU 0 instructions: 50000000 cycles: 60379757 cumulative IPC: 0.8281 (Simulation time: 01 hr 21 min 13 sec)
Warmup complete CPU 3 instructions: 241481050 cycles: 60379757 cumulative IPC: 3.999 (Simulation time: 01 hr 21 min 13 sec)
Warmup complete CPU 2 instructions: 241481501 cycles: 60379757 cumulative IPC: 3.999 (Simulation time: 01 hr 21 min 13 sec)
Warmup complete CPU 1 instructions: 161672083 cycles: 60379757 cumulative IPC: 2.678 (Simulation time: 01 hr 21 min 13 sec)
Warmup complete CPU 0 instructions: 50000000 cycles: 60379757 cumulative IPC: 0.8281 (Simulation time: 01 hr 21 min 13 sec)
Heartbeat CPU 0 instructions: 50000005 cycles: 60379763 heartbeat IPC: 0.6371 cumulative IPC: 0.8333 (Simulation time: 01 hr 21 min 13 sec)
Heartbeat CPU 2 instructions: 250000001 cycles: 62509382 heartbeat IPC: 4 cumulative IPC: 4 (Simulation time: 01 hr 23 min 47 sec)
Heartbeat CPU 3 instructions: 250000002 cycles: 62509495 heartbeat IPC: 4 cumulative IPC: 4 (Simulation time: 01 hr 23 min 47 sec)
Heartbeat CPU 1 instructions: 170000026 cycles: 64757168 heartbeat IPC: 2.004 cumulative IPC: 1.902 (Simulation time: 01 hr 26 min 21 sec)
Heartbeat CPU 2 instructions: 260000001 cycles: 65009382 heartbeat IPC: 4 cumulative IPC: 4 (Simulation time: 01 hr 26 min 44 sec)
Heartbeat CPU 3 instructions: 260000002 cycles: 65009495 heartbeat IPC: 4 cumulative IPC: 4 (Simulation time: 01 hr 26 min 44 sec)
Heartbeat CPU 2 instructions: 270000001 cycles: 67509382 heartbeat IPC: 4 cumulative IPC: 4 (Simulation time: 01 hr 30 min 22 sec)
Heartbeat CPU 3 instructions: 270000002 cycles: 67509495 heartbeat IPC: 4 cumulative IPC: 4 (Simulation time: 01 hr 30 min 22 sec)
Heartbeat CPU 1 instructions: 180000028 cycles: 69896565 heartbeat IPC: 1.946 cumulative IPC: 1.926 (Simulation time: 01 hr 33 min 24 sec)
Heartbeat CPU 2 instructions: 280000001 cycles: 70009382 heartbeat IPC: 4 cumulative IPC: 4 (Simulation time: 01 hr 33 min 32 sec)
Heartbeat CPU 3 instructions: 280000002 cycles: 70009495 heartbeat IPC: 4 cumulative IPC: 4 (Simulation time: 01 hr 33 min 32 sec)
Heartbeat CPU 2 instructions: 290000001 cycles: 72509382 heartbeat IPC: 4 cumulative IPC: 4 (Simulation time: 01 hr 36 min 42 sec)
Heartbeat CPU 3 instructions: 290000002 cycles: 72509495 heartbeat IPC: 4 cumulative IPC: 4 (Simulation time: 01 hr 36 min 42 sec)
Heartbeat CPU 1 instructions: 190000028 cycles: 74875788 heartbeat IPC: 2.008 cumulative IPC: 1.954 (Simulation time: 01 hr 39 min 40 sec)
Heartbeat CPU 2 instructions: 300000001 cycles: 75009382 heartbeat IPC: 4 cumulative IPC: 4 (Simulation time: 01 hr 39 min 51 sec)
Heartbeat CPU 3 instructions: 300000002 cycles: 75009495 heartbeat IPC: 4 cumulative IPC: 4 (Simulation time: 01 hr 39 min 51 sec)
Heartbeat CPU 2 instructions: 310000001 cycles: 77509382 heartbeat IPC: 4 cumulative IPC: 4 (Simulation time: 01 hr 43 min 22 sec)
Heartbeat CPU 3 instructions: 310000002 cycles: 77509495 heartbeat IPC: 4 cumulative IPC: 4 (Simulation time: 01 hr 43 min 22 sec)
Heartbeat CPU 1 instructions: 200000028 cycles: 79737064 heartbeat IPC: 2.057 cumulative IPC: 1.98 (Simulation time: 01 hr 46 min 27 sec)
Heartbeat CPU 2 instructions: 320000001 cycles: 80009382 heartbeat IPC: 4 cumulative IPC: 4 (Simulation time: 01 hr 46 min 49 sec)
Heartbeat CPU 3 instructions: 320000002 cycles: 80009495 heartbeat IPC: 4 cumulative IPC: 4 (Simulation time: 01 hr 46 min 49 sec)
Heartbeat CPU 0 instructions: 60000009 cycles: 80161125 heartbeat IPC: 0.5055 cumulative IPC: 0.5055 (Simulation time: 01 hr 47 min 01 sec)
Heartbeat CPU 2 instructions: 330000001 cycles: 82509382 heartbeat IPC: 4 cumulative IPC: 4 (Simulation time: 01 hr 49 min 59 sec)
Heartbeat CPU 3 instructions: 330000002 cycles: 82509495 heartbeat IPC: 4 cumulative IPC: 4 (Simulation time: 01 hr 49 min 59 sec)
Heartbeat CPU 1 instructions: 210000031 cycles: 84732011 heartbeat IPC: 2.002 cumulative IPC: 1.985 (Simulation time: 01 hr 52 min 37 sec)
Heartbeat CPU 2 instructions: 340000001 cycles: 85009382 heartbeat IPC: 4 cumulative IPC: 4 (Simulation time: 01 hr 52 min 57 sec)
Heartbeat CPU 3 instructions: 340000002 cycles: 85009495 heartbeat IPC: 4 cumulative IPC: 4 (Simulation time: 01 hr 52 min 57 sec)
Simulation finished CPU 3 instructions: 100000000 cycles: 25000000 cumulative IPC: 4 (Simulation time: 01 hr 53 min 24 sec)
Simulation finished CPU 2 instructions: 100000000 cycles: 25000000 cumulative IPC: 4 (Simulation time: 01 hr 53 min 24 sec)
Heartbeat CPU 2 instructions: 350000001 cycles: 87509382 heartbeat IPC: 4 cumulative IPC: 4 (Simulation time: 01 hr 55 min 59 sec)
Heartbeat CPU 3 instructions: 350000002 cycles: 87509495 heartbeat IPC: 4 cumulative IPC: 4 (Simulation time: 01 hr 55 min 59 sec)
Heartbeat CPU 1 instructions: 220000031 cycles: 89796217 heartbeat IPC: 1.975 cumulative IPC: 1.983 (Simulation time: 01 hr 58 min 49 sec)
Heartbeat CPU 2 instructions: 360000001 cycles: 90009382 heartbeat IPC: 4 cumulative IPC: 4 (Simulation time: 01 hr 59 min 04 sec)
Heartbeat CPU 3 instructions: 360000002 cycles: 90009495 heartbeat IPC: 4 cumulative IPC: 4 (Simulation time: 01 hr 59 min 04 sec)
Heartbeat CPU 2 instructions: 370000001 cycles: 92509382 heartbeat IPC: 4 cumulative IPC: 4 (Simulation time: 02 hr 02 min 08 sec)
Heartbeat CPU 3 instructions: 370000002 cycles: 92509495 heartbeat IPC: 4 cumulative IPC: 4 (Simulation time: 02 hr 02 min 08 sec)
Heartbeat CPU 1 instructions: 230000034 cycles: 94762702 heartbeat IPC: 2.013 cumulative IPC: 1.987 (Simulation time: 02 hr 04 min 59 sec)
Heartbeat CPU 2 instructions: 380000001 cycles: 95009382 heartbeat IPC: 4 cumulative IPC: 4 (Simulation time: 02 hr 05 min 20 sec)
Heartbeat CPU 3 instructions: 380000002 cycles: 95009495 heartbeat IPC: 4 cumulative IPC: 4 (Simulation time: 02 hr 05 min 20 sec)
Heartbeat CPU 2 instructions: 390000001 cycles: 97509382 heartbeat IPC: 4 cumulative IPC: 4 (Simulation time: 02 hr 08 min 25 sec)
Heartbeat CPU 3 instructions: 390000002 cycles: 97509495 heartbeat IPC: 4 cumulative IPC: 4 (Simulation time: 02 hr 08 min 25 sec)
Heartbeat CPU 0 instructions: 70000009 cycles: 99602035 heartbeat IPC: 0.5144 cumulative IPC: 0.5099 (Simulation time: 02 hr 10 min 44 sec)
Heartbeat CPU 1 instructions: 240000035 cycles: 99830393 heartbeat IPC: 1.973 cumulative IPC: 1.985 (Simulation time: 02 hr 10 min 59 sec)
Heartbeat CPU 2 instructions: 400000001 cycles: 100009382 heartbeat IPC: 4 cumulative IPC: 4 (Simulation time: 02 hr 11 min 10 sec)
Heartbeat CPU 3 instructions: 400000002 cycles: 100009495 heartbeat IPC: 4 cumulative IPC: 4 (Simulation time: 02 hr 11 min 10 sec)
Heartbeat CPU 2 instructions: 410000001 cycles: 102509382 heartbeat IPC: 4 cumulative IPC: 4 (Simulation time: 02 hr 13 min 55 sec)
Heartbeat CPU 3 instructions: 410000004 cycles: 102509574 heartbeat IPC: 4 cumulative IPC: 4 (Simulation time: 02 hr 13 min 55 sec)
Heartbeat CPU 1 instructions: 250000035 cycles: 104928544 heartbeat IPC: 1.961 cumulative IPC: 1.983 (Simulation time: 02 hr 16 min 31 sec)
Heartbeat CPU 2 instructions: 420000001 cycles: 105009444 heartbeat IPC: 4 cumulative IPC: 4 (Simulation time: 02 hr 16 min 36 sec)
Heartbeat CPU 3 instructions: 420000004 cycles: 105009574 heartbeat IPC: 4 cumulative IPC: 4 (Simulation time: 02 hr 16 min 36 sec)
Heartbeat CPU 2 instructions: 430000001 cycles: 107509444 heartbeat IPC: 4 cumulative IPC: 4 (Simulation time: 02 hr 19 min 19 sec)
Heartbeat CPU 3 instructions: 430000004 cycles: 107509574 heartbeat IPC: 4 cumulative IPC: 4 (Simulation time: 02 hr 19 min 19 sec)
Heartbeat CPU 2 instructions: 440000001 cycles: 110009444 heartbeat IPC: 4 cumulative IPC: 4 (Simulation time: 02 hr 21 min 58 sec)
Heartbeat CPU 3 instructions: 440000004 cycles: 110009574 heartbeat IPC: 4 cumulative IPC: 4 (Simulation time: 02 hr 21 min 58 sec)
Heartbeat CPU 1 instructions: 260000038 cycles: 110069243 heartbeat IPC: 1.945 cumulative IPC: 1.979 (Simulation time: 02 hr 22 min 02 sec)
Simulation finished CPU 1 instructions: 100000002 cycles: 50583349 cumulative IPC: 1.977 (Simulation time: 02 hr 23 min 00 sec)
Heartbeat CPU 2 instructions: 450000001 cycles: 112509444 heartbeat IPC: 4 cumulative IPC: 4 (Simulation time: 02 hr 24 min 40 sec)
Heartbeat CPU 3 instructions: 450000004 cycles: 112509574 heartbeat IPC: 4 cumulative IPC: 4 (Simulation time: 02 hr 24 min 40 sec)
Heartbeat CPU 2 instructions: 460000001 cycles: 115009444 heartbeat IPC: 4 cumulative IPC: 4 (Simulation time: 02 hr 27 min 22 sec)
Heartbeat CPU 3 instructions: 460000004 cycles: 115009574 heartbeat IPC: 4 cumulative IPC: 4 (Simulation time: 02 hr 27 min 22 sec)
Heartbeat CPU 1 instructions: 270000040 cycles: 115221767 heartbeat IPC: 1.941 cumulative IPC: 1.975 (Simulation time: 02 hr 27 min 36 sec)
Heartbeat CPU 2 instructions: 470000001 cycles: 117509444 heartbeat IPC: 4 cumulative IPC: 4 (Simulation time: 02 hr 30 min 00 sec)
Heartbeat CPU 3 instructions: 470000004 cycles: 117509574 heartbeat IPC: 4 cumulative IPC: 4 (Simulation time: 02 hr 30 min 00 sec)
Heartbeat CPU 0 instructions: 80000009 cycles: 118474948 heartbeat IPC: 0.5299 cumulative IPC: 0.5164 (Simulation time: 02 hr 31 min 02 sec)
Heartbeat CPU 2 instructions: 480000001 cycles: 120009444 heartbeat IPC: 4 cumulative IPC: 4 (Simulation time: 02 hr 32 min 37 sec)
Heartbeat CPU 3 instructions: 480000004 cycles: 120009574 heartbeat IPC: 4 cumulative IPC: 4 (Simulation time: 02 hr 32 min 37 sec)
Heartbeat CPU 1 instructions: 280000042 cycles: 121938583 heartbeat IPC: 1.489 cumulative IPC: 1.922 (Simulation time: 02 hr 34 min 39 sec)
Heartbeat CPU 2 instructions: 490000001 cycles: 122509444 heartbeat IPC: 4 cumulative IPC: 4 (Simulation time: 02 hr 35 min 16 sec)
Heartbeat CPU 3 instructions: 490000004 cycles: 122509574 heartbeat IPC: 4 cumulative IPC: 4 (Simulation time: 02 hr 35 min 16 sec)
Heartbeat CPU 2 instructions: 500000001 cycles: 125009444 heartbeat IPC: 4 cumulative IPC: 4 (Simulation time: 02 hr 37 min 53 sec)
Heartbeat CPU 3 instructions: 500000004 cycles: 125009574 heartbeat IPC: 4 cumulative IPC: 4 (Simulation time: 02 hr 37 min 53 sec)
Heartbeat CPU 2 instructions: 510000001 cycles: 127509444 heartbeat IPC: 4 cumulative IPC: 4 (Simulation time: 02 hr 40 min 30 sec)
Heartbeat CPU 3 instructions: 510000004 cycles: 127509574 heartbeat IPC: 4 cumulative IPC: 4 (Simulation time: 02 hr 40 min 30 sec)
Heartbeat CPU 1 instructions: 290000042 cycles: 129257579 heartbeat IPC: 1.366 cumulative IPC: 1.863 (Simulation time: 02 hr 42 min 22 sec)
Heartbeat CPU 2 instructions: 520000001 cycles: 130009444 heartbeat IPC: 4 cumulative IPC: 4 (Simulation time: 02 hr 43 min 11 sec)
Heartbeat CPU 3 instructions: 520000004 cycles: 130009574 heartbeat IPC: 4 cumulative IPC: 4 (Simulation time: 02 hr 43 min 11 sec)
Heartbeat CPU 2 instructions: 530000001 cycles: 132509444 heartbeat IPC: 4 cumulative IPC: 4 (Simulation time: 02 hr 45 min 54 sec)
Heartbeat CPU 3 instructions: 530000004 cycles: 132509574 heartbeat IPC: 4 cumulative IPC: 4 (Simulation time: 02 hr 45 min 54 sec)
*** Reached end of trace: (3, "/home/harshraj/COALESCE-Hashed-Perceptron-Cache-Replacement-Policy/simulator/traces/barnes_4t3.champsimtrace")
Heartbeat CPU 1 instructions: 300000043 cycles: 134648097 heartbeat IPC: 1.855 cumulative IPC: 1.863 (Simulation time: 02 hr 48 min 13 sec)
Heartbeat CPU 2 instructions: 540000001 cycles: 135009444 heartbeat IPC: 4 cumulative IPC: 4 (Simulation time: 02 hr 48 min 37 sec)
Heartbeat CPU 3 instructions: 540000006 cycles: 135017860 heartbeat IPC: 3.987 cumulative IPC: 4 (Simulation time: 02 hr 48 min 37 sec)
Heartbeat CPU 2 instructions: 550000001 cycles: 137509444 heartbeat IPC: 4 cumulative IPC: 4 (Simulation time: 02 hr 51 min 20 sec)
Heartbeat CPU 3 instructions: 550000006 cycles: 137517860 heartbeat IPC: 4 cumulative IPC: 4 (Simulation time: 02 hr 51 min 20 sec)
Heartbeat CPU 0 instructions: 90000010 cycles: 138299251 heartbeat IPC: 0.5044 cumulative IPC: 0.5134 (Simulation time: 02 hr 52 min 11 sec)
*** Reached end of trace: (2, "/home/harshraj/COALESCE-Hashed-Perceptron-Cache-Replacement-Policy/simulator/traces/barnes_4t2.champsimtrace")
Heartbeat CPU 1 instructions: 310000043 cycles: 139770102 heartbeat IPC: 1.952 cumulative IPC: 1.868 (Simulation time: 02 hr 53 min 48 sec)
Heartbeat CPU 2 instructions: 560000001 cycles: 140016458 heartbeat IPC: 3.989 cumulative IPC: 4 (Simulation time: 02 hr 54 min 04 sec)
Heartbeat CPU 3 instructions: 560000006 cycles: 140017860 heartbeat IPC: 4 cumulative IPC: 4 (Simulation time: 02 hr 54 min 04 sec)
Heartbeat CPU 2 instructions: 570000001 cycles: 142516458 heartbeat IPC: 4 cumulative IPC: 4 (Simulation time: 02 hr 56 min 47 sec)
Heartbeat CPU 3 instructions: 570000006 cycles: 142517860 heartbeat IPC: 4 cumulative IPC: 4 (Simulation time: 02 hr 56 min 48 sec)
Heartbeat CPU 2 instructions: 580000001 cycles: 145016458 heartbeat IPC: 4 cumulative IPC: 4 (Simulation time: 02 hr 59 min 30 sec)
Heartbeat CPU 3 instructions: 580000006 cycles: 145017860 heartbeat IPC: 4 cumulative IPC: 4 (Simulation time: 02 hr 59 min 30 sec)
Heartbeat CPU 1 instructions: 320000046 cycles: 145130987 heartbeat IPC: 1.865 cumulative IPC: 1.868 (Simulation time: 02 hr 59 min 37 sec)
Heartbeat CPU 2 instructions: 590000001 cycles: 147516458 heartbeat IPC: 4 cumulative IPC: 4 (Simulation time: 03 hr 02 min 12 sec)
Heartbeat CPU 3 instructions: 590000006 cycles: 147517860 heartbeat IPC: 4 cumulative IPC: 4 (Simulation time: 03 hr 02 min 12 sec)
Heartbeat CPU 2 instructions: 600000001 cycles: 150016458 heartbeat IPC: 4 cumulative IPC: 4 (Simulation time: 03 hr 04 min 55 sec)
Heartbeat CPU 3 instructions: 600000006 cycles: 150017860 heartbeat IPC: 4 cumulative IPC: 4 (Simulation time: 03 hr 04 min 55 sec)
Heartbeat CPU 1 instructions: 330000048 cycles: 150326444 heartbeat IPC: 1.925 cumulative IPC: 1.871 (Simulation time: 03 hr 05 min 15 sec)
Heartbeat CPU 2 instructions: 610000001 cycles: 152516458 heartbeat IPC: 4 cumulative IPC: 4 (Simulation time: 03 hr 07 min 39 sec)
Heartbeat CPU 3 instructions: 610000006 cycles: 152517860 heartbeat IPC: 4 cumulative IPC: 4 (Simulation time: 03 hr 07 min 39 sec)
Heartbeat CPU 2 instructions: 620000001 cycles: 155016458 heartbeat IPC: 4 cumulative IPC: 4 (Simulation time: 03 hr 10 min 22 sec)
Heartbeat CPU 3 instructions: 620000006 cycles: 155017860 heartbeat IPC: 4 cumulative IPC: 4 (Simulation time: 03 hr 10 min 22 sec)
Heartbeat CPU 1 instructions: 340000051 cycles: 155292863 heartbeat IPC: 2.014 cumulative IPC: 1.879 (Simulation time: 03 hr 10 min 40 sec)
Heartbeat CPU 0 instructions: 100000010 cycles: 157014406 heartbeat IPC: 0.5343 cumulative IPC: 0.5174 (Simulation time: 03 hr 12 min 34 sec)
Heartbeat CPU 2 instructions: 630000001 cycles: 157516458 heartbeat IPC: 4 cumulative IPC: 4 (Simulation time: 03 hr 13 min 07 sec)
Heartbeat CPU 3 instructions: 630000006 cycles: 157517860 heartbeat IPC: 4 cumulative IPC: 4 (Simulation time: 03 hr 13 min 07 sec)
Heartbeat CPU 1 instructions: 350000052 cycles: 159843116 heartbeat IPC: 2.198 cumulative IPC: 1.893 (Simulation time: 03 hr 15 min 41 sec)
Heartbeat CPU 2 instructions: 640000001 cycles: 160016458 heartbeat IPC: 4 cumulative IPC: 4 (Simulation time: 03 hr 15 min 52 sec)
Heartbeat CPU 3 instructions: 640000006 cycles: 160017860 heartbeat IPC: 4 cumulative IPC: 4 (Simulation time: 03 hr 15 min 52 sec)
Heartbeat CPU 2 instructions: 650000001 cycles: 162516458 heartbeat IPC: 4 cumulative IPC: 4 (Simulation time: 03 hr 18 min 42 sec)
Heartbeat CPU 3 instructions: 650000006 cycles: 162517860 heartbeat IPC: 4 cumulative IPC: 4 (Simulation time: 03 hr 18 min 42 sec)
Heartbeat CPU 1 instructions: 360000055 cycles: 164965851 heartbeat IPC: 1.952 cumulative IPC: 1.896 (Simulation time: 03 hr 21 min 20 sec)
Heartbeat CPU 2 instructions: 660000001 cycles: 165016458 heartbeat IPC: 4 cumulative IPC: 4 (Simulation time: 03 hr 21 min 24 sec)
Heartbeat CPU 3 instructions: 660000006 cycles: 165017860 heartbeat IPC: 4 cumulative IPC: 4 (Simulation time: 03 hr 21 min 24 sec)
Heartbeat CPU 2 instructions: 670000001 cycles: 167516458 heartbeat IPC: 4 cumulative IPC: 4 (Simulation time: 03 hr 24 min 10 sec)
Heartbeat CPU 3 instructions: 670000006 cycles: 167517860 heartbeat IPC: 4 cumulative IPC: 4 (Simulation time: 03 hr 24 min 11 sec)
Heartbeat CPU 1 instructions: 370000056 cycles: 169786841 heartbeat IPC: 2.074 cumulative IPC: 1.904 (Simulation time: 03 hr 26 min 42 sec)
Heartbeat CPU 2 instructions: 680000001 cycles: 170016458 heartbeat IPC: 4 cumulative IPC: 4 (Simulation time: 03 hr 26 min 57 sec)
Heartbeat CPU 3 instructions: 680000006 cycles: 170017860 heartbeat IPC: 4 cumulative IPC: 4 (Simulation time: 03 hr 26 min 58 sec)
Heartbeat CPU 2 instructions: 690000001 cycles: 172516458 heartbeat IPC: 4 cumulative IPC: 4 (Simulation time: 03 hr 29 min 42 sec)
Heartbeat CPU 3 instructions: 690000006 cycles: 172517860 heartbeat IPC: 4 cumulative IPC: 4 (Simulation time: 03 hr 29 min 42 sec)
Heartbeat CPU 0 instructions: 110000010 cycles: 174359877 heartbeat IPC: 0.5765 cumulative IPC: 0.5264 (Simulation time: 03 hr 31 min 41 sec)
Heartbeat CPU 1 instructions: 380000058 cycles: 174938402 heartbeat IPC: 1.941 cumulative IPC: 1.906 (Simulation time: 03 hr 32 min 19 sec)
Heartbeat CPU 2 instructions: 700000001 cycles: 175016458 heartbeat IPC: 4 cumulative IPC: 4 (Simulation time: 03 hr 32 min 24 sec)
Heartbeat CPU 3 instructions: 700000006 cycles: 175017860 heartbeat IPC: 4 cumulative IPC: 4 (Simulation time: 03 hr 32 min 24 sec)
Heartbeat CPU 2 instructions: 710000001 cycles: 177516458 heartbeat IPC: 4 cumulative IPC: 4 (Simulation time: 03 hr 35 min 09 sec)
Heartbeat CPU 3 instructions: 710000006 cycles: 177517860 heartbeat IPC: 4 cumulative IPC: 4 (Simulation time: 03 hr 35 min 09 sec)
Heartbeat CPU 2 instructions: 720000001 cycles: 180016458 heartbeat IPC: 4 cumulative IPC: 4 (Simulation time: 03 hr 37 min 54 sec)
Heartbeat CPU 3 instructions: 720000006 cycles: 180017860 heartbeat IPC: 4 cumulative IPC: 4 (Simulation time: 03 hr 37 min 54 sec)
Heartbeat CPU 1 instructions: 390000061 cycles: 180786426 heartbeat IPC: 1.71 cumulative IPC: 1.896 (Simulation time: 03 hr 38 min 45 sec)
Heartbeat CPU 2 instructions: 730000001 cycles: 182516458 heartbeat IPC: 4 cumulative IPC: 4 (Simulation time: 03 hr 40 min 36 sec)
Heartbeat CPU 3 instructions: 730000006 cycles: 182517860 heartbeat IPC: 4 cumulative IPC: 4 (Simulation time: 03 hr 40 min 36 sec)
Heartbeat CPU 2 instructions: 740000001 cycles: 185016458 heartbeat IPC: 4 cumulative IPC: 4 (Simulation time: 03 hr 43 min 19 sec)
Heartbeat CPU 3 instructions: 740000006 cycles: 185017860 heartbeat IPC: 4 cumulative IPC: 4 (Simulation time: 03 hr 43 min 19 sec)
Heartbeat CPU 1 instructions: 400000063 cycles: 186988002 heartbeat IPC: 1.612 cumulative IPC: 1.882 (Simulation time: 03 hr 45 min 31 sec)
Heartbeat CPU 2 instructions: 750000001 cycles: 187516458 heartbeat IPC: 4 cumulative IPC: 4 (Simulation time: 03 hr 46 min 09 sec)
Heartbeat CPU 3 instructions: 750000006 cycles: 187517860 heartbeat IPC: 4 cumulative IPC: 4 (Simulation time: 03 hr 46 min 09 sec)
Heartbeat CPU 2 instructions: 760000001 cycles: 190016458 heartbeat IPC: 4 cumulative IPC: 4 (Simulation time: 03 hr 49 min 00 sec)
Heartbeat CPU 3 instructions: 760000006 cycles: 190017860 heartbeat IPC: 4 cumulative IPC: 4 (Simulation time: 03 hr 49 min 00 sec)
Heartbeat CPU 0 instructions: 120000010 cycles: 191157043 heartbeat IPC: 0.5953 cumulative IPC: 0.5353 (Simulation time: 03 hr 50 min 20 sec)
Heartbeat CPU 2 instructions: 770000001 cycles: 192516458 heartbeat IPC: 4 cumulative IPC: 4 (Simulation time: 03 hr 51 min 55 sec)
Heartbeat CPU 3 instructions: 770000006 cycles: 192517860 heartbeat IPC: 4 cumulative IPC: 4 (Simulation time: 03 hr 51 min 55 sec)
Heartbeat CPU 1 instructions: 410000064 cycles: 192641620 heartbeat IPC: 1.769 cumulative IPC: 1.878 (Simulation time: 03 hr 52 min 03 sec)
Heartbeat CPU 2 instructions: 780000001 cycles: 195016458 heartbeat IPC: 4 cumulative IPC: 4 (Simulation time: 03 hr 54 min 49 sec)
Heartbeat CPU 3 instructions: 780000006 cycles: 195017860 heartbeat IPC: 4 cumulative IPC: 4 (Simulation time: 03 hr 54 min 49 sec)
Heartbeat CPU 2 instructions: 790000001 cycles: 197516458 heartbeat IPC: 4 cumulative IPC: 4 (Simulation time: 03 hr 57 min 38 sec)
Heartbeat CPU 3 instructions: 790000006 cycles: 197517860 heartbeat IPC: 4 cumulative IPC: 4 (Simulation time: 03 hr 57 min 38 sec)
Heartbeat CPU 2 instructions: 800000001 cycles: 200016458 heartbeat IPC: 4 cumulative IPC: 4 (Simulation time: 04 hr 00 min 26 sec)
Heartbeat CPU 3 instructions: 800000006 cycles: 200017860 heartbeat IPC: 4 cumulative IPC: 4 (Simulation time: 04 hr 00 min 26 sec)
Heartbeat CPU 1 instructions: 420000066 cycles: 201614256 heartbeat IPC: 1.114 cumulative IPC: 1.829 (Simulation time: 04 hr 02 min 15 sec)
Heartbeat CPU 2 instructions: 810000001 cycles: 202516458 heartbeat IPC: 4 cumulative IPC: 4 (Simulation time: 04 hr 03 min 17 sec)
Heartbeat CPU 3 instructions: 810000006 cycles: 202517860 heartbeat IPC: 4 cumulative IPC: 4 (Simulation time: 04 hr 03 min 17 sec)
Heartbeat CPU 0 instructions: 130000012 cycles: 203610082 heartbeat IPC: 0.803 cumulative IPC: 0.5585 (Simulation time: 04 hr 04 min 34 sec)
Heartbeat CPU 2 instructions: 820000001 cycles: 205016458 heartbeat IPC: 4 cumulative IPC: 4 (Simulation time: 04 hr 06 min 08 sec)
Heartbeat CPU 3 instructions: 820000006 cycles: 205017860 heartbeat IPC: 4 cumulative IPC: 4 (Simulation time: 04 hr 06 min 09 sec)
Heartbeat CPU 2 instructions: 830000001 cycles: 207516458 heartbeat IPC: 4 cumulative IPC: 4 (Simulation time: 04 hr 09 min 10 sec)
Heartbeat CPU 3 instructions: 830000006 cycles: 207517860 heartbeat IPC: 4 cumulative IPC: 4 (Simulation time: 04 hr 09 min 10 sec)
Heartbeat CPU 1 instructions: 430000066 cycles: 207760447 heartbeat IPC: 1.627 cumulative IPC: 1.821 (Simulation time: 04 hr 09 min 27 sec)
Heartbeat CPU 2 instructions: 840000001 cycles: 210016458 heartbeat IPC: 4 cumulative IPC: 4 (Simulation time: 04 hr 12 min 28 sec)
Heartbeat CPU 3 instructions: 840000006 cycles: 210017860 heartbeat IPC: 4 cumulative IPC: 4 (Simulation time: 04 hr 12 min 28 sec)
Heartbeat CPU 0 instructions: 140000013 cycles: 210475903 heartbeat IPC: 1.456 cumulative IPC: 0.5996 (Simulation time: 04 hr 13 min 12 sec)
Heartbeat CPU 2 instructions: 850000001 cycles: 212516458 heartbeat IPC: 4 cumulative IPC: 4 (Simulation time: 04 hr 15 min 53 sec)
Heartbeat CPU 3 instructions: 850000006 cycles: 212517860 heartbeat IPC: 4 cumulative IPC: 4 (Simulation time: 04 hr 15 min 54 sec)
Heartbeat CPU 1 instructions: 440000069 cycles: 213045910 heartbeat IPC: 1.892 cumulative IPC: 1.823 (Simulation time: 04 hr 16 min 31 sec)
Heartbeat CPU 2 instructions: 860000001 cycles: 215016458 heartbeat IPC: 4 cumulative IPC: 4 (Simulation time: 04 hr 18 min 51 sec)
Heartbeat CPU 3 instructions: 860000006 cycles: 215017860 heartbeat IPC: 4 cumulative IPC: 4 (Simulation time: 04 hr 18 min 51 sec)
Heartbeat CPU 2 instructions: 870000001 cycles: 217516458 heartbeat IPC: 4 cumulative IPC: 4 (Simulation time: 04 hr 21 min 44 sec)
Heartbeat CPU 3 instructions: 870000006 cycles: 217517860 heartbeat IPC: 4 cumulative IPC: 4 (Simulation time: 04 hr 21 min 44 sec)
Heartbeat CPU 1 instructions: 450000070 cycles: 218478073 heartbeat IPC: 1.841 cumulative IPC: 1.824 (Simulation time: 04 hr 22 min 49 sec)
Heartbeat CPU 2 instructions: 880000001 cycles: 220016458 heartbeat IPC: 4 cumulative IPC: 4 (Simulation time: 04 hr 24 min 32 sec)
Heartbeat CPU 3 instructions: 880000006 cycles: 220017860 heartbeat IPC: 4 cumulative IPC: 4 (Simulation time: 04 hr 24 min 32 sec)
Heartbeat CPU 2 instructions: 890000001 cycles: 222516458 heartbeat IPC: 4 cumulative IPC: 4 (Simulation time: 04 hr 27 min 18 sec)
Heartbeat CPU 3 instructions: 890000006 cycles: 222517860 heartbeat IPC: 4 cumulative IPC: 4 (Simulation time: 04 hr 27 min 19 sec)
Simulation finished CPU 0 instructions: 100000004 cycles: 162545897 cumulative IPC: 0.6152 (Simulation time: 04 hr 27 min 45 sec)
Simulation complete CPU 3 instructions: 650150132 cycles: 162545897 cumulative IPC: 4 (Simulation time: 04 hr 27 min 45 sec)
Simulation complete CPU 2 instructions: 650155284 cycles: 162545897 cumulative IPC: 4 (Simulation time: 04 hr 27 min 45 sec)
Simulation complete CPU 1 instructions: 296690782 cycles: 162545897 cumulative IPC: 1.825 (Simulation time: 04 hr 27 min 45 sec)
Simulation complete CPU 0 instructions: 100000004 cycles: 162545897 cumulative IPC: 0.6152 (Simulation time: 04 hr 27 min 45 sec)

ChampSim completed all CPUs

=== Simulation ===
CPU 0 runs /home/harshraj/COALESCE-Hashed-Perceptron-Cache-Replacement-Policy/simulator/traces/barnes_4t0.champsimtrace
CPU 1 runs /home/harshraj/COALESCE-Hashed-Perceptron-Cache-Replacement-Policy/simulator/traces/barnes_4t1.champsimtrace
CPU 2 runs /home/harshraj/COALESCE-Hashed-Perceptron-Cache-Replacement-Policy/simulator/traces/barnes_4t2.champsimtrace
CPU 3 runs /home/harshraj/COALESCE-Hashed-Perceptron-Cache-Replacement-Policy/simulator/traces/barnes_4t3.champsimtrace

Total Simulation Statistics (not including warmup)

CPU 3 cumulative IPC: 4 instructions: 650150132 cycles: 162545897
CPU 3 Branch Prediction Accuracy: -% MPKI: 0 Average ROB Occupancy at Mispredict: -
Branch type MPKI
BRANCH_DIRECT_JUMP: 0
BRANCH_INDIRECT: 0
BRANCH_CONDITIONAL: 0
BRANCH_DIRECT_CALL: 0
BRANCH_INDIRECT_CALL: 0
BRANCH_RETURN: 0


CPU 2 cumulative IPC: 4 instructions: 650155284 cycles: 162545897
CPU 2 Branch Prediction Accuracy: -% MPKI: 0 Average ROB Occupancy at Mispredict: -
Branch type MPKI
BRANCH_DIRECT_JUMP: 0
BRANCH_INDIRECT: 0
BRANCH_CONDITIONAL: 0
BRANCH_DIRECT_CALL: 0
BRANCH_INDIRECT_CALL: 0
BRANCH_RETURN: 0


CPU 1 cumulative IPC: 1.825 instructions: 296690782 cycles: 162545897
CPU 1 Branch Prediction Accuracy: -% MPKI: 0 Average ROB Occupancy at Mispredict: -
Branch type MPKI
BRANCH_DIRECT_JUMP: 0
BRANCH_INDIRECT: 0
BRANCH_CONDITIONAL: 0
BRANCH_DIRECT_CALL: 0
BRANCH_INDIRECT_CALL: 0
BRANCH_RETURN: 0


CPU 0 cumulative IPC: 0.6152 instructions: 100000004 cycles: 162545897
CPU 0 Branch Prediction Accuracy: -% MPKI: 0 Average ROB Occupancy at Mispredict: -
Branch type MPKI
BRANCH_DIRECT_JUMP: 0
BRANCH_INDIRECT: 0
BRANCH_CONDITIONAL: 0
BRANCH_DIRECT_CALL: 0
BRANCH_INDIRECT_CALL: 0
BRANCH_RETURN: 0

cpu3->cpu3_STLB TOTAL        ACCESS:         18 HIT:          8 MISS:         10 MSHR_MERGE:          0
cpu3->cpu3_STLB LOAD         ACCESS:         18 HIT:          8 MISS:         10 MSHR_MERGE:          0
cpu3->cpu3_STLB RFO          ACCESS:          0 HIT:          0 MISS:          0 MSHR_MERGE:          0
cpu3->cpu3_STLB PREFETCH     ACCESS:          0 HIT:          0 MISS:          0 MSHR_MERGE:          0
cpu3->cpu3_STLB WRITE        ACCESS:          0 HIT:          0 MISS:          0 MSHR_MERGE:          0
cpu3->cpu3_STLB TRANSLATION  ACCESS:          0 HIT:          0 MISS:          0 MSHR_MERGE:          0
cpu3->cpu3_STLB PREFETCH REQUESTED:          0 ISSUED:          0 USEFUL:          0 USELESS:          0
cpu3->cpu3_STLB AVERAGE MISS LATENCY: 765.5 cycles
cpu3_STLB COHERENCE INVALIDATIONS:          0
cpu3_STLB COHERENCE WRITE-HIT OTHER-SHARER EVENTS:          0
cpu3->cpu3_L2C TOTAL        ACCESS:         58 HIT:          4 MISS:         54 MSHR_MERGE:          0
cpu3->cpu3_L2C LOAD         ACCESS:         38 HIT:          4 MISS:         34 MSHR_MERGE:          0
cpu3->cpu3_L2C RFO          ACCESS:          0 HIT:          0 MISS:          0 MSHR_MERGE:          0
cpu3->cpu3_L2C PREFETCH     ACCESS:          0 HIT:          0 MISS:          0 MSHR_MERGE:          0
cpu3->cpu3_L2C WRITE        ACCESS:          0 HIT:          0 MISS:          0 MSHR_MERGE:          0
cpu3->cpu3_L2C TRANSLATION  ACCESS:         20 HIT:          0 MISS:         20 MSHR_MERGE:          0
cpu3->cpu3_L2C PREFETCH REQUESTED:          0 ISSUED:          0 USEFUL:          0 USELESS:          0
cpu3->cpu3_L2C AVERAGE MISS LATENCY: 209.2 cycles
cpu3_L2C COHERENCE INVALIDATIONS:          0
cpu3_L2C COHERENCE WRITE-HIT OTHER-SHARER EVENTS:          0
cpu3->cpu3_L1I TOTAL        ACCESS:  101495258 HIT:  101495205 MISS:         53 MSHR_MERGE:         15
cpu3->cpu3_L1I LOAD         ACCESS:  101495258 HIT:  101495205 MISS:         53 MSHR_MERGE:         15
cpu3->cpu3_L1I RFO          ACCESS:          0 HIT:          0 MISS:          0 MSHR_MERGE:          0
cpu3->cpu3_L1I PREFETCH     ACCESS:          0 HIT:          0 MISS:          0 MSHR_MERGE:          0
cpu3->cpu3_L1I WRITE        ACCESS:          0 HIT:          0 MISS:          0 MSHR_MERGE:          0
cpu3->cpu3_L1I TRANSLATION  ACCESS:          0 HIT:          0 MISS:          0 MSHR_MERGE:          0
cpu3->cpu3_L1I PREFETCH REQUESTED:          0 ISSUED:          0 USEFUL:          0 USELESS:          0
cpu3->cpu3_L1I AVERAGE MISS LATENCY: 184.8 cycles
cpu3_L1I COHERENCE INVALIDATIONS:          0
cpu3_L1I COHERENCE WRITE-HIT OTHER-SHARER EVENTS:          0
cpu3->cpu3_L1D TOTAL        ACCESS:         20 HIT:          0 MISS:         20 MSHR_MERGE:          0
cpu3->cpu3_L1D LOAD         ACCESS:          0 HIT:          0 MISS:          0 MSHR_MERGE:          0
cpu3->cpu3_L1D RFO          ACCESS:          0 HIT:          0 MISS:          0 MSHR_MERGE:          0
cpu3->cpu3_L1D PREFETCH     ACCESS:          0 HIT:          0 MISS:          0 MSHR_MERGE:          0
cpu3->cpu3_L1D WRITE        ACCESS:          0 HIT:          0 MISS:          0 MSHR_MERGE:          0
cpu3->cpu3_L1D TRANSLATION  ACCESS:         20 HIT:          0 MISS:         20 MSHR_MERGE:          0
cpu3->cpu3_L1D PREFETCH REQUESTED:          0 ISSUED:          0 USEFUL:          0 USELESS:          0
cpu3->cpu3_L1D AVERAGE MISS LATENCY: 236.8 cycles
cpu3_L1D COHERENCE INVALIDATIONS:          0
cpu3_L1D COHERENCE WRITE-HIT OTHER-SHARER EVENTS:          0
cpu3->cpu3_ITLB TOTAL        ACCESS:   80132955 HIT:   80132924 MISS:         31 MSHR_MERGE:         13
cpu3->cpu3_ITLB LOAD         ACCESS:   80132955 HIT:   80132924 MISS:         31 MSHR_MERGE:         13
cpu3->cpu3_ITLB RFO          ACCESS:          0 HIT:          0 MISS:          0 MSHR_MERGE:          0
cpu3->cpu3_ITLB PREFETCH     ACCESS:          0 HIT:          0 MISS:          0 MSHR_MERGE:          0
cpu3->cpu3_ITLB WRITE        ACCESS:          0 HIT:          0 MISS:          0 MSHR_MERGE:          0
cpu3->cpu3_ITLB TRANSLATION  ACCESS:          0 HIT:          0 MISS:          0 MSHR_MERGE:          0
cpu3->cpu3_ITLB PREFETCH REQUESTED:          0 ISSUED:          0 USEFUL:          0 USELESS:          0
cpu3->cpu3_ITLB AVERAGE MISS LATENCY: 429.8 cycles
cpu3_ITLB COHERENCE INVALIDATIONS:          0
cpu3_ITLB COHERENCE WRITE-HIT OTHER-SHARER EVENTS:          0
cpu3_DTLB COHERENCE INVALIDATIONS:          0
cpu3_DTLB COHERENCE WRITE-HIT OTHER-SHARER EVENTS:          0
cpu2->cpu2_STLB TOTAL        ACCESS:         17 HIT:          7 MISS:         10 MSHR_MERGE:          0
cpu2->cpu2_STLB LOAD         ACCESS:         17 HIT:          7 MISS:         10 MSHR_MERGE:          0
cpu2->cpu2_STLB RFO          ACCESS:          0 HIT:          0 MISS:          0 MSHR_MERGE:          0
cpu2->cpu2_STLB PREFETCH     ACCESS:          0 HIT:          0 MISS:          0 MSHR_MERGE:          0
cpu2->cpu2_STLB WRITE        ACCESS:          0 HIT:          0 MISS:          0 MSHR_MERGE:          0
cpu2->cpu2_STLB TRANSLATION  ACCESS:          0 HIT:          0 MISS:          0 MSHR_MERGE:          0
cpu2->cpu2_STLB PREFETCH REQUESTED:          0 ISSUED:          0 USEFUL:          0 USELESS:          0
cpu2->cpu2_STLB AVERAGE MISS LATENCY: 638.9 cycles
cpu2_STLB COHERENCE INVALIDATIONS:          0
cpu2_STLB COHERENCE WRITE-HIT OTHER-SHARER EVENTS:          0
cpu2->cpu2_L2C TOTAL        ACCESS:         58 HIT:          4 MISS:         54 MSHR_MERGE:          0
cpu2->cpu2_L2C LOAD         ACCESS:         38 HIT:          4 MISS:         34 MSHR_MERGE:          0
cpu2->cpu2_L2C RFO          ACCESS:          0 HIT:          0 MISS:          0 MSHR_MERGE:          0
cpu2->cpu2_L2C PREFETCH     ACCESS:          0 HIT:          0 MISS:          0 MSHR_MERGE:          0
cpu2->cpu2_L2C WRITE        ACCESS:          0 HIT:          0 MISS:          0 MSHR_MERGE:          0
cpu2->cpu2_L2C TRANSLATION  ACCESS:         20 HIT:          0 MISS:         20 MSHR_MERGE:          0
cpu2->cpu2_L2C PREFETCH REQUESTED:          0 ISSUED:          0 USEFUL:          0 USELESS:          0
cpu2->cpu2_L2C AVERAGE MISS LATENCY: 180.1 cycles
cpu2_L2C COHERENCE INVALIDATIONS:          0
cpu2_L2C COHERENCE WRITE-HIT OTHER-SHARER EVENTS:          0
cpu2->cpu2_L1I TOTAL        ACCESS:  104472890 HIT:  104472840 MISS:         50 MSHR_MERGE:         12
cpu2->cpu2_L1I LOAD         ACCESS:  104472890 HIT:  104472840 MISS:         50 MSHR_MERGE:         12
cpu2->cpu2_L1I RFO          ACCESS:          0 HIT:          0 MISS:          0 MSHR_MERGE:          0
cpu2->cpu2_L1I PREFETCH     ACCESS:          0 HIT:          0 MISS:          0 MSHR_MERGE:          0
cpu2->cpu2_L1I WRITE        ACCESS:          0 HIT:          0 MISS:          0 MSHR_MERGE:          0
cpu2->cpu2_L1I TRANSLATION  ACCESS:          0 HIT:          0 MISS:          0 MSHR_MERGE:          0
cpu2->cpu2_L1I PREFETCH REQUESTED:          0 ISSUED:          0 USEFUL:          0 USELESS:          0
cpu2->cpu2_L1I AVERAGE MISS LATENCY: 155.6 cycles
cpu2_L1I COHERENCE INVALIDATIONS:          0
cpu2_L1I COHERENCE WRITE-HIT OTHER-SHARER EVENTS:          0
cpu2->cpu2_L1D TOTAL        ACCESS:         20 HIT:          0 MISS:         20 MSHR_MERGE:          0
cpu2->cpu2_L1D LOAD         ACCESS:          0 HIT:          0 MISS:          0 MSHR_MERGE:          0
cpu2->cpu2_L1D RFO          ACCESS:          0 HIT:          0 MISS:          0 MSHR_MERGE:          0
cpu2->cpu2_L1D PREFETCH     ACCESS:          0 HIT:          0 MISS:          0 MSHR_MERGE:          0
cpu2->cpu2_L1D WRITE        ACCESS:          0 HIT:          0 MISS:          0 MSHR_MERGE:          0
cpu2->cpu2_L1D TRANSLATION  ACCESS:         20 HIT:          0 MISS:         20 MSHR_MERGE:          0
cpu2->cpu2_L1D PREFETCH REQUESTED:          0 ISSUED:          0 USEFUL:          0 USELESS:          0
cpu2->cpu2_L1D AVERAGE MISS LATENCY: 213.4 cycles
cpu2_L1D COHERENCE INVALIDATIONS:          0
cpu2_L1D COHERENCE WRITE-HIT OTHER-SHARER EVENTS:          0
cpu2->cpu2_ITLB TOTAL        ACCESS:   80599787 HIT:   80599758 MISS:         29 MSHR_MERGE:         12
cpu2->cpu2_ITLB LOAD         ACCESS:   80599787 HIT:   80599758 MISS:         29 MSHR_MERGE:         12
cpu2->cpu2_ITLB RFO          ACCESS:          0 HIT:          0 MISS:          0 MSHR_MERGE:          0
cpu2->cpu2_ITLB PREFETCH     ACCESS:          0 HIT:          0 MISS:          0 MSHR_MERGE:          0
cpu2->cpu2_ITLB WRITE        ACCESS:          0 HIT:          0 MISS:          0 MSHR_MERGE:          0
cpu2->cpu2_ITLB TRANSLATION  ACCESS:          0 HIT:          0 MISS:          0 MSHR_MERGE:          0
cpu2->cpu2_ITLB PREFETCH REQUESTED:          0 ISSUED:          0 USEFUL:          0 USELESS:          0
cpu2->cpu2_ITLB AVERAGE MISS LATENCY: 380.4 cycles
cpu2_ITLB COHERENCE INVALIDATIONS:          0
cpu2_ITLB COHERENCE WRITE-HIT OTHER-SHARER EVENTS:          0
cpu2_DTLB COHERENCE INVALIDATIONS:          0
cpu2_DTLB COHERENCE WRITE-HIT OTHER-SHARER EVENTS:          0
cpu1->cpu1_STLB TOTAL        ACCESS:    1111411 HIT:    1111243 MISS:        168 MSHR_MERGE:          0
cpu1->cpu1_STLB LOAD         ACCESS:    1111411 HIT:    1111243 MISS:        168 MSHR_MERGE:          0
cpu1->cpu1_STLB RFO          ACCESS:          0 HIT:          0 MISS:          0 MSHR_MERGE:          0
cpu1->cpu1_STLB PREFETCH     ACCESS:          0 HIT:          0 MISS:          0 MSHR_MERGE:          0
cpu1->cpu1_STLB WRITE        ACCESS:          0 HIT:          0 MISS:          0 MSHR_MERGE:          0
cpu1->cpu1_STLB TRANSLATION  ACCESS:          0 HIT:          0 MISS:          0 MSHR_MERGE:          0
cpu1->cpu1_STLB PREFETCH REQUESTED:          0 ISSUED:          0 USEFUL:          0 USELESS:          0
cpu1->cpu1_STLB AVERAGE MISS LATENCY: 634.9 cycles
cpu1_STLB COHERENCE INVALIDATIONS:          0
cpu1_STLB COHERENCE WRITE-HIT OTHER-SHARER EVENTS:          0
cpu1->cpu1_L2C TOTAL        ACCESS:    3312875 HIT:    3027711 MISS:     285164 MSHR_MERGE:          0
cpu1->cpu1_L2C LOAD         ACCESS:    3312678 HIT:    3027711 MISS:     284967 MSHR_MERGE:          0
cpu1->cpu1_L2C RFO          ACCESS:          0 HIT:          0 MISS:          0 MSHR_MERGE:          0
cpu1->cpu1_L2C PREFETCH     ACCESS:          0 HIT:          0 MISS:          0 MSHR_MERGE:          0
cpu1->cpu1_L2C WRITE        ACCESS:          0 HIT:          0 MISS:          0 MSHR_MERGE:          0
cpu1->cpu1_L2C TRANSLATION  ACCESS:        197 HIT:          0 MISS:        197 MSHR_MERGE:          0
cpu1->cpu1_L2C PREFETCH REQUESTED:          0 ISSUED:          0 USEFUL:          0 USELESS:          0
cpu1->cpu1_L2C AVERAGE MISS LATENCY: 147.5 cycles
cpu1_L2C COHERENCE INVALIDATIONS:          0
cpu1_L2C COHERENCE WRITE-HIT OTHER-SHARER EVENTS:          0
cpu1->cpu1_L1I TOTAL        ACCESS:   62477969 HIT:   59103934 MISS:    3374035 MSHR_MERGE:      61357
cpu1->cpu1_L1I LOAD         ACCESS:   62477969 HIT:   59103934 MISS:    3374035 MSHR_MERGE:      61357
cpu1->cpu1_L1I RFO          ACCESS:          0 HIT:          0 MISS:          0 MSHR_MERGE:          0
cpu1->cpu1_L1I PREFETCH     ACCESS:          0 HIT:          0 MISS:          0 MSHR_MERGE:          0
cpu1->cpu1_L1I WRITE        ACCESS:          0 HIT:          0 MISS:          0 MSHR_MERGE:          0
cpu1->cpu1_L1I TRANSLATION  ACCESS:          0 HIT:          0 MISS:          0 MSHR_MERGE:          0
cpu1->cpu1_L1I PREFETCH REQUESTED:          0 ISSUED:          0 USEFUL:          0 USELESS:          0
cpu1->cpu1_L1I AVERAGE MISS LATENCY: 19.94 cycles
cpu1_L1I COHERENCE INVALIDATIONS:          0
cpu1_L1I COHERENCE WRITE-HIT OTHER-SHARER EVENTS:          0
cpu1->cpu1_L1D TOTAL        ACCESS:        339 HIT:        142 MISS:        197 MSHR_MERGE:          0
cpu1->cpu1_L1D LOAD         ACCESS:          0 HIT:          0 MISS:          0 MSHR_MERGE:          0
cpu1->cpu1_L1D RFO          ACCESS:          0 HIT:          0 MISS:          0 MSHR_MERGE:          0
cpu1->cpu1_L1D PREFETCH     ACCESS:          0 HIT:          0 MISS:          0 MSHR_MERGE:          0
cpu1->cpu1_L1D WRITE        ACCESS:          0 HIT:          0 MISS:          0 MSHR_MERGE:          0
cpu1->cpu1_L1D TRANSLATION  ACCESS:        339 HIT:        142 MISS:        197 MSHR_MERGE:          0
cpu1->cpu1_L1D PREFETCH REQUESTED:          0 ISSUED:          0 USEFUL:          0 USELESS:          0
cpu1->cpu1_L1D AVERAGE MISS LATENCY: 193.8 cycles
cpu1_L1D COHERENCE INVALIDATIONS:          0
cpu1_L1D COHERENCE WRITE-HIT OTHER-SHARER EVENTS:          0
cpu1->cpu1_ITLB TOTAL        ACCESS:   60059562 HIT:   58888355 MISS:    1171207 MSHR_MERGE:      59796
cpu1->cpu1_ITLB LOAD         ACCESS:   60059562 HIT:   58888355 MISS:    1171207 MSHR_MERGE:      59796
cpu1->cpu1_ITLB RFO          ACCESS:          0 HIT:          0 MISS:          0 MSHR_MERGE:          0
cpu1->cpu1_ITLB PREFETCH     ACCESS:          0 HIT:          0 MISS:          0 MSHR_MERGE:          0
cpu1->cpu1_ITLB WRITE        ACCESS:          0 HIT:          0 MISS:          0 MSHR_MERGE:          0
cpu1->cpu1_ITLB TRANSLATION  ACCESS:          0 HIT:          0 MISS:          0 MSHR_MERGE:          0
cpu1->cpu1_ITLB PREFETCH REQUESTED:          0 ISSUED:          0 USEFUL:          0 USELESS:          0
cpu1->cpu1_ITLB AVERAGE MISS LATENCY: 4.096 cycles
cpu1_ITLB COHERENCE INVALIDATIONS:          0
cpu1_ITLB COHERENCE WRITE-HIT OTHER-SHARER EVENTS:          0
cpu1_DTLB COHERENCE INVALIDATIONS:          0
cpu1_DTLB COHERENCE WRITE-HIT OTHER-SHARER EVENTS:          0
cpu0->cpu0_STLB TOTAL        ACCESS:    3021978 HIT:    3009034 MISS:      12944 MSHR_MERGE:          0
cpu0->cpu0_STLB LOAD         ACCESS:    3021978 HIT:    3009034 MISS:      12944 MSHR_MERGE:          0
cpu0->cpu0_STLB RFO          ACCESS:          0 HIT:          0 MISS:          0 MSHR_MERGE:          0
cpu0->cpu0_STLB PREFETCH     ACCESS:          0 HIT:          0 MISS:          0 MSHR_MERGE:          0
cpu0->cpu0_STLB WRITE        ACCESS:          0 HIT:          0 MISS:          0 MSHR_MERGE:          0
cpu0->cpu0_STLB TRANSLATION  ACCESS:          0 HIT:          0 MISS:          0 MSHR_MERGE:          0
cpu0->cpu0_STLB PREFETCH REQUESTED:          0 ISSUED:          0 USEFUL:          0 USELESS:          0
cpu0->cpu0_STLB AVERAGE MISS LATENCY: 242 cycles
cpu0_STLB COHERENCE INVALIDATIONS:          0
cpu0_STLB COHERENCE WRITE-HIT OTHER-SHARER EVENTS:          0
cpu0->cpu0_L2C TOTAL        ACCESS:    4709844 HIT:    4296988 MISS:     412856 MSHR_MERGE:          0
cpu0->cpu0_L2C LOAD         ACCESS:    3759441 HIT:    3412601 MISS:     346840 MSHR_MERGE:          0
cpu0->cpu0_L2C RFO          ACCESS:     343043 HIT:     291057 MISS:      51986 MSHR_MERGE:          0
cpu0->cpu0_L2C PREFETCH     ACCESS:          0 HIT:          0 MISS:          0 MSHR_MERGE:          0
cpu0->cpu0_L2C WRITE        ACCESS:     579128 HIT:     578848 MISS:        280 MSHR_MERGE:          0
cpu0->cpu0_L2C TRANSLATION  ACCESS:      28232 HIT:      14482 MISS:      13750 MSHR_MERGE:          0
cpu0->cpu0_L2C PREFETCH REQUESTED:          0 ISSUED:          0 USEFUL:          0 USELESS:          0
cpu0->cpu0_L2C AVERAGE MISS LATENCY: 166.3 cycles
cpu0_L2C COHERENCE INVALIDATIONS:          0
cpu0_L2C COHERENCE WRITE-HIT OTHER-SHARER EVENTS:          0
cpu0->cpu0_L1I TOTAL        ACCESS:   25234466 HIT:   25234449 MISS:         17 MSHR_MERGE:          4
cpu0->cpu0_L1I LOAD         ACCESS:   25234466 HIT:   25234449 MISS:         17 MSHR_MERGE:          4
cpu0->cpu0_L1I RFO          ACCESS:          0 HIT:          0 MISS:          0 MSHR_MERGE:          0
cpu0->cpu0_L1I PREFETCH     ACCESS:          0 HIT:          0 MISS:          0 MSHR_MERGE:          0
cpu0->cpu0_L1I WRITE        ACCESS:          0 HIT:          0 MISS:          0 MSHR_MERGE:          0
cpu0->cpu0_L1I TRANSLATION  ACCESS:          0 HIT:          0 MISS:          0 MSHR_MERGE:          0
cpu0->cpu0_L1I PREFETCH REQUESTED:          0 ISSUED:          0 USEFUL:          0 USELESS:          0
cpu0->cpu0_L1I AVERAGE MISS LATENCY: 239.1 cycles
cpu0_L1I COHERENCE INVALIDATIONS:          0
cpu0_L1I COHERENCE WRITE-HIT OTHER-SHARER EVENTS:          0
cpu0->cpu0_L1D TOTAL        ACCESS:   63856592 HIT:   59641766 MISS:    4214826 MSHR_MERGE:      83636
cpu0->cpu0_L1D LOAD         ACCESS:   16957168 HIT:   13184694 MISS:    3772474 MSHR_MERGE:      12956
cpu0->cpu0_L1D RFO          ACCESS:          0 HIT:          0 MISS:          0 MSHR_MERGE:          0
cpu0->cpu0_L1D PREFETCH     ACCESS:          0 HIT:          0 MISS:          0 MSHR_MERGE:          0
cpu0->cpu0_L1D WRITE        ACCESS:   46868044 HIT:   46453931 MISS:     414113 MSHR_MERGE:      70673
cpu0->cpu0_L1D TRANSLATION  ACCESS:      31380 HIT:       3141 MISS:      28239 MSHR_MERGE:          7
cpu0->cpu0_L1D PREFETCH REQUESTED:          0 ISSUED:          0 USEFUL:          0 USELESS:          0
cpu0->cpu0_L1D AVERAGE MISS LATENCY: 23.92 cycles
cpu0_L1D COHERENCE INVALIDATIONS:          0
cpu0_L1D COHERENCE WRITE-HIT OTHER-SHARER EVENTS:          0
cpu0->cpu0_ITLB TOTAL        ACCESS:   22735098 HIT:   22735098 MISS:          0 MSHR_MERGE:          0
cpu0->cpu0_ITLB LOAD         ACCESS:   22735098 HIT:   22735098 MISS:          0 MSHR_MERGE:          0
cpu0->cpu0_ITLB RFO          ACCESS:          0 HIT:          0 MISS:          0 MSHR_MERGE:          0
cpu0->cpu0_ITLB PREFETCH     ACCESS:          0 HIT:          0 MISS:          0 MSHR_MERGE:          0
cpu0->cpu0_ITLB WRITE        ACCESS:          0 HIT:          0 MISS:          0 MSHR_MERGE:          0
cpu0->cpu0_ITLB TRANSLATION  ACCESS:          0 HIT:          0 MISS:          0 MSHR_MERGE:          0
cpu0->cpu0_ITLB PREFETCH REQUESTED:          0 ISSUED:          0 USEFUL:          0 USELESS:          0
cpu0->cpu0_ITLB AVERAGE MISS LATENCY: - cycles
cpu0_ITLB COHERENCE INVALIDATIONS:          0
cpu0_ITLB COHERENCE WRITE-HIT OTHER-SHARER EVENTS:          0
cpu0->cpu0_DTLB TOTAL        ACCESS:   62018568 HIT:   58824386 MISS:    3194182 MSHR_MERGE:     172204
cpu0->cpu0_DTLB LOAD         ACCESS:   62018568 HIT:   58824386 MISS:    3194182 MSHR_MERGE:     172204
cpu0->cpu0_DTLB RFO          ACCESS:          0 HIT:          0 MISS:          0 MSHR_MERGE:          0
cpu0->cpu0_DTLB PREFETCH     ACCESS:          0 HIT:          0 MISS:          0 MSHR_MERGE:          0
cpu0->cpu0_DTLB WRITE        ACCESS:          0 HIT:          0 MISS:          0 MSHR_MERGE:          0
cpu0->cpu0_DTLB TRANSLATION  ACCESS:          0 HIT:          0 MISS:          0 MSHR_MERGE:          0
cpu0->cpu0_DTLB PREFETCH REQUESTED:          0 ISSUED:          0 USEFUL:          0 USELESS:          0
cpu0->cpu0_DTLB AVERAGE MISS LATENCY: 5.041 cycles
cpu0_DTLB COHERENCE INVALIDATIONS:          0
cpu0_DTLB COHERENCE WRITE-HIT OTHER-SHARER EVENTS:          0
cpu0->LLC TOTAL        ACCESS:     517710 HIT:     138159 MISS:     379551 MSHR_MERGE:          2
cpu0->LLC LOAD         ACCESS:     346840 HIT:      93815 MISS:     253025 MSHR_MERGE:          2
cpu0->LLC RFO          ACCESS:      51986 HIT:      14398 MISS:      37588 MSHR_MERGE:          0
cpu0->LLC PREFETCH     ACCESS:          0 HIT:          0 MISS:          0 MSHR_MERGE:          0
cpu0->LLC WRITE        ACCESS:     105134 HIT:      27204 MISS:      77930 MSHR_MERGE:          0
cpu0->LLC TRANSLATION  ACCESS:      13750 HIT:       2742 MISS:      11008 MSHR_MERGE:          0
cpu0->LLC PREFETCH REQUESTED:          0 ISSUED:          0 USEFUL:          0 USELESS:          0
cpu0->LLC AVERAGE MISS LATENCY: 264.6 cycles
cpu1->LLC TOTAL        ACCESS:     285164 HIT:      82101 MISS:     203063 MSHR_MERGE:          0
cpu1->LLC LOAD         ACCESS:     284967 HIT:      82101 MISS:     202866 MSHR_MERGE:          0
cpu1->LLC RFO          ACCESS:          0 HIT:          0 MISS:          0 MSHR_MERGE:          0
cpu1->LLC PREFETCH     ACCESS:          0 HIT:          0 MISS:          0 MSHR_MERGE:          0
cpu1->LLC WRITE        ACCESS:          0 HIT:          0 MISS:          0 MSHR_MERGE:          0
cpu1->LLC TRANSLATION  ACCESS:        197 HIT:          0 MISS:        197 MSHR_MERGE:          0
cpu1->LLC PREFETCH REQUESTED:          0 ISSUED:          0 USEFUL:          0 USELESS:          0
cpu1->LLC AVERAGE MISS LATENCY: 494.7 cycles
cpu2->LLC TOTAL        ACCESS:         54 HIT:          7 MISS:         47 MSHR_MERGE:          0
cpu2->LLC LOAD         ACCESS:         34 HIT:          7 MISS:         27 MSHR_MERGE:          0
cpu2->LLC RFO          ACCESS:          0 HIT:          0 MISS:          0 MSHR_MERGE:          0
cpu2->LLC PREFETCH     ACCESS:          0 HIT:          0 MISS:          0 MSHR_MERGE:          0
cpu2->LLC WRITE        ACCESS:          0 HIT:          0 MISS:          0 MSHR_MERGE:          0
cpu2->LLC TRANSLATION  ACCESS:         20 HIT:          0 MISS:         20 MSHR_MERGE:          0
cpu2->LLC PREFETCH REQUESTED:          0 ISSUED:          0 USEFUL:          0 USELESS:          0
cpu2->LLC AVERAGE MISS LATENCY: 2.137e+06 cycles
cpu3->LLC TOTAL        ACCESS:         54 HIT:          0 MISS:         54 MSHR_MERGE:          0
cpu3->LLC LOAD         ACCESS:         34 HIT:          0 MISS:         34 MSHR_MERGE:          0
cpu3->LLC RFO          ACCESS:          0 HIT:          0 MISS:          0 MSHR_MERGE:          0
cpu3->LLC PREFETCH     ACCESS:          0 HIT:          0 MISS:          0 MSHR_MERGE:          0
cpu3->LLC WRITE        ACCESS:          0 HIT:          0 MISS:          0 MSHR_MERGE:          0
cpu3->LLC TRANSLATION  ACCESS:         20 HIT:          0 MISS:         20 MSHR_MERGE:          0
cpu3->LLC PREFETCH REQUESTED:          0 ISSUED:          0 USEFUL:          0 USELESS:          0
cpu3->LLC AVERAGE MISS LATENCY: 1.86e+06 cycles
LLC COHERENCE INVALIDATIONS:       5622
LLC COHERENCE WRITE-HIT OTHER-SHARER EVENTS:       5622

Region of Interest Statistics

CPU 3 cumulative IPC: 4 instructions: 100000000 cycles: 25000000
CPU 3 Branch Prediction Accuracy: -% MPKI: 0 Average ROB Occupancy at Mispredict: -
Branch type MPKI
BRANCH_DIRECT_JUMP: 0
BRANCH_INDIRECT: 0
BRANCH_CONDITIONAL: 0
BRANCH_DIRECT_CALL: 0
BRANCH_INDIRECT_CALL: 0
BRANCH_RETURN: 0


CPU 2 cumulative IPC: 4 instructions: 100000000 cycles: 25000000
CPU 2 Branch Prediction Accuracy: -% MPKI: 0 Average ROB Occupancy at Mispredict: -
Branch type MPKI
BRANCH_DIRECT_JUMP: 0
BRANCH_INDIRECT: 0
BRANCH_CONDITIONAL: 0
BRANCH_DIRECT_CALL: 0
BRANCH_INDIRECT_CALL: 0
BRANCH_RETURN: 0


CPU 1 cumulative IPC: 1.977 instructions: 100000002 cycles: 50583349
CPU 1 Branch Prediction Accuracy: -% MPKI: 0 Average ROB Occupancy at Mispredict: -
Branch type MPKI
BRANCH_DIRECT_JUMP: 0
BRANCH_INDIRECT: 0
BRANCH_CONDITIONAL: 0
BRANCH_DIRECT_CALL: 0
BRANCH_INDIRECT_CALL: 0
BRANCH_RETURN: 0


CPU 0 cumulative IPC: 0.6152 instructions: 100000004 cycles: 162545897
CPU 0 Branch Prediction Accuracy: -% MPKI: 0 Average ROB Occupancy at Mispredict: -
Branch type MPKI
BRANCH_DIRECT_JUMP: 0
BRANCH_INDIRECT: 0
BRANCH_CONDITIONAL: 0
BRANCH_DIRECT_CALL: 0
BRANCH_INDIRECT_CALL: 0
BRANCH_RETURN: 0

cpu3->cpu3_STLB TOTAL        ACCESS:         18 HIT:          8 MISS:         10 MSHR_MERGE:          0
cpu3->cpu3_STLB LOAD         ACCESS:         18 HIT:          8 MISS:         10 MSHR_MERGE:          0
cpu3->cpu3_STLB RFO          ACCESS:          0 HIT:          0 MISS:          0 MSHR_MERGE:          0
cpu3->cpu3_STLB PREFETCH     ACCESS:          0 HIT:          0 MISS:          0 MSHR_MERGE:          0
cpu3->cpu3_STLB WRITE        ACCESS:          0 HIT:          0 MISS:          0 MSHR_MERGE:          0
cpu3->cpu3_STLB TRANSLATION  ACCESS:          0 HIT:          0 MISS:          0 MSHR_MERGE:          0
cpu3->cpu3_STLB PREFETCH REQUESTED:          0 ISSUED:          0 USEFUL:          0 USELESS:          0
cpu3->cpu3_STLB AVERAGE MISS LATENCY: 765.5 cycles
cpu3_STLB COHERENCE INVALIDATIONS:          0
cpu3_STLB COHERENCE WRITE-HIT OTHER-SHARER EVENTS:          0
cpu3->cpu3_L2C TOTAL        ACCESS:         58 HIT:          4 MISS:         54 MSHR_MERGE:          0
cpu3->cpu3_L2C LOAD         ACCESS:         38 HIT:          4 MISS:         34 MSHR_MERGE:          0
cpu3->cpu3_L2C RFO          ACCESS:          0 HIT:          0 MISS:          0 MSHR_MERGE:          0
cpu3->cpu3_L2C PREFETCH     ACCESS:          0 HIT:          0 MISS:          0 MSHR_MERGE:          0
cpu3->cpu3_L2C WRITE        ACCESS:          0 HIT:          0 MISS:          0 MSHR_MERGE:          0
cpu3->cpu3_L2C TRANSLATION  ACCESS:         20 HIT:          0 MISS:         20 MSHR_MERGE:          0
cpu3->cpu3_L2C PREFETCH REQUESTED:          0 ISSUED:          0 USEFUL:          0 USELESS:          0
cpu3->cpu3_L2C AVERAGE MISS LATENCY: 209.2 cycles
cpu3_L2C COHERENCE INVALIDATIONS:          0
cpu3_L2C COHERENCE WRITE-HIT OTHER-SHARER EVENTS:          0
cpu3->cpu3_L1I TOTAL        ACCESS:  101495258 HIT:  101495205 MISS:         53 MSHR_MERGE:         15
cpu3->cpu3_L1I LOAD         ACCESS:  101495258 HIT:  101495205 MISS:         53 MSHR_MERGE:         15
cpu3->cpu3_L1I RFO          ACCESS:          0 HIT:          0 MISS:          0 MSHR_MERGE:          0
cpu3->cpu3_L1I PREFETCH     ACCESS:          0 HIT:          0 MISS:          0 MSHR_MERGE:          0
cpu3->cpu3_L1I WRITE        ACCESS:          0 HIT:          0 MISS:          0 MSHR_MERGE:          0
cpu3->cpu3_L1I TRANSLATION  ACCESS:          0 HIT:          0 MISS:          0 MSHR_MERGE:          0
cpu3->cpu3_L1I PREFETCH REQUESTED:          0 ISSUED:          0 USEFUL:          0 USELESS:          0
cpu3->cpu3_L1I AVERAGE MISS LATENCY: 184.8 cycles
cpu3_L1I COHERENCE INVALIDATIONS:          0
cpu3_L1I COHERENCE WRITE-HIT OTHER-SHARER EVENTS:          0
cpu3->cpu3_L1D TOTAL        ACCESS:         20 HIT:          0 MISS:         20 MSHR_MERGE:          0
cpu3->cpu3_L1D LOAD         ACCESS:          0 HIT:          0 MISS:          0 MSHR_MERGE:          0
cpu3->cpu3_L1D RFO          ACCESS:          0 HIT:          0 MISS:          0 MSHR_MERGE:          0
cpu3->cpu3_L1D PREFETCH     ACCESS:          0 HIT:          0 MISS:          0 MSHR_MERGE:          0
cpu3->cpu3_L1D WRITE        ACCESS:          0 HIT:          0 MISS:          0 MSHR_MERGE:          0
cpu3->cpu3_L1D TRANSLATION  ACCESS:         20 HIT:          0 MISS:         20 MSHR_MERGE:          0
cpu3->cpu3_L1D PREFETCH REQUESTED:          0 ISSUED:          0 USEFUL:          0 USELESS:          0
cpu3->cpu3_L1D AVERAGE MISS LATENCY: 236.8 cycles
cpu3_L1D COHERENCE INVALIDATIONS:          0
cpu3_L1D COHERENCE WRITE-HIT OTHER-SHARER EVENTS:          0
cpu3->cpu3_ITLB TOTAL        ACCESS:   80132955 HIT:   80132924 MISS:         31 MSHR_MERGE:         13
cpu3->cpu3_ITLB LOAD         ACCESS:   80132955 HIT:   80132924 MISS:         31 MSHR_MERGE:         13
cpu3->cpu3_ITLB RFO          ACCESS:          0 HIT:          0 MISS:          0 MSHR_MERGE:          0
cpu3->cpu3_ITLB PREFETCH     ACCESS:          0 HIT:          0 MISS:          0 MSHR_MERGE:          0
cpu3->cpu3_ITLB WRITE        ACCESS:          0 HIT:          0 MISS:          0 MSHR_MERGE:          0
cpu3->cpu3_ITLB TRANSLATION  ACCESS:          0 HIT:          0 MISS:          0 MSHR_MERGE:          0
cpu3->cpu3_ITLB PREFETCH REQUESTED:          0 ISSUED:          0 USEFUL:          0 USELESS:          0
cpu3->cpu3_ITLB AVERAGE MISS LATENCY: 429.8 cycles
cpu3_ITLB COHERENCE INVALIDATIONS:          0
cpu3_ITLB COHERENCE WRITE-HIT OTHER-SHARER EVENTS:          0
cpu3_DTLB COHERENCE INVALIDATIONS:          0
cpu3_DTLB COHERENCE WRITE-HIT OTHER-SHARER EVENTS:          0
cpu2->cpu2_STLB TOTAL        ACCESS:         17 HIT:          7 MISS:         10 MSHR_MERGE:          0
cpu2->cpu2_STLB LOAD         ACCESS:         17 HIT:          7 MISS:         10 MSHR_MERGE:          0
cpu2->cpu2_STLB RFO          ACCESS:          0 HIT:          0 MISS:          0 MSHR_MERGE:          0
cpu2->cpu2_STLB PREFETCH     ACCESS:          0 HIT:          0 MISS:          0 MSHR_MERGE:          0
cpu2->cpu2_STLB WRITE        ACCESS:          0 HIT:          0 MISS:          0 MSHR_MERGE:          0
cpu2->cpu2_STLB TRANSLATION  ACCESS:          0 HIT:          0 MISS:          0 MSHR_MERGE:          0
cpu2->cpu2_STLB PREFETCH REQUESTED:          0 ISSUED:          0 USEFUL:          0 USELESS:          0
cpu2->cpu2_STLB AVERAGE MISS LATENCY: 638.9 cycles
cpu2_STLB COHERENCE INVALIDATIONS:          0
cpu2_STLB COHERENCE WRITE-HIT OTHER-SHARER EVENTS:          0
cpu2->cpu2_L2C TOTAL        ACCESS:         58 HIT:          4 MISS:         54 MSHR_MERGE:          0
cpu2->cpu2_L2C LOAD         ACCESS:         38 HIT:          4 MISS:         34 MSHR_MERGE:          0
cpu2->cpu2_L2C RFO          ACCESS:          0 HIT:          0 MISS:          0 MSHR_MERGE:          0
cpu2->cpu2_L2C PREFETCH     ACCESS:          0 HIT:          0 MISS:          0 MSHR_MERGE:          0
cpu2->cpu2_L2C WRITE        ACCESS:          0 HIT:          0 MISS:          0 MSHR_MERGE:          0
cpu2->cpu2_L2C TRANSLATION  ACCESS:         20 HIT:          0 MISS:         20 MSHR_MERGE:          0
cpu2->cpu2_L2C PREFETCH REQUESTED:          0 ISSUED:          0 USEFUL:          0 USELESS:          0
cpu2->cpu2_L2C AVERAGE MISS LATENCY: 180.1 cycles
cpu2_L2C COHERENCE INVALIDATIONS:          0
cpu2_L2C COHERENCE WRITE-HIT OTHER-SHARER EVENTS:          0
cpu2->cpu2_L1I TOTAL        ACCESS:  104472890 HIT:  104472840 MISS:         50 MSHR_MERGE:         12
cpu2->cpu2_L1I LOAD         ACCESS:  104472890 HIT:  104472840 MISS:         50 MSHR_MERGE:         12
cpu2->cpu2_L1I RFO          ACCESS:          0 HIT:          0 MISS:          0 MSHR_MERGE:          0
cpu2->cpu2_L1I PREFETCH     ACCESS:          0 HIT:          0 MISS:          0 MSHR_MERGE:          0
cpu2->cpu2_L1I WRITE        ACCESS:          0 HIT:          0 MISS:          0 MSHR_MERGE:          0
cpu2->cpu2_L1I TRANSLATION  ACCESS:          0 HIT:          0 MISS:          0 MSHR_MERGE:          0
cpu2->cpu2_L1I PREFETCH REQUESTED:          0 ISSUED:          0 USEFUL:          0 USELESS:          0
cpu2->cpu2_L1I AVERAGE MISS LATENCY: 155.6 cycles
cpu2_L1I COHERENCE INVALIDATIONS:          0
cpu2_L1I COHERENCE WRITE-HIT OTHER-SHARER EVENTS:          0
cpu2->cpu2_L1D TOTAL        ACCESS:         20 HIT:          0 MISS:         20 MSHR_MERGE:          0
cpu2->cpu2_L1D LOAD         ACCESS:          0 HIT:          0 MISS:          0 MSHR_MERGE:          0
cpu2->cpu2_L1D RFO          ACCESS:          0 HIT:          0 MISS:          0 MSHR_MERGE:          0
cpu2->cpu2_L1D PREFETCH     ACCESS:          0 HIT:          0 MISS:          0 MSHR_MERGE:          0
cpu2->cpu2_L1D WRITE        ACCESS:          0 HIT:          0 MISS:          0 MSHR_MERGE:          0
cpu2->cpu2_L1D TRANSLATION  ACCESS:         20 HIT:          0 MISS:         20 MSHR_MERGE:          0
cpu2->cpu2_L1D PREFETCH REQUESTED:          0 ISSUED:          0 USEFUL:          0 USELESS:          0
cpu2->cpu2_L1D AVERAGE MISS LATENCY: 213.4 cycles
cpu2_L1D COHERENCE INVALIDATIONS:          0
cpu2_L1D COHERENCE WRITE-HIT OTHER-SHARER EVENTS:          0
cpu2->cpu2_ITLB TOTAL        ACCESS:   80599787 HIT:   80599758 MISS:         29 MSHR_MERGE:         12
cpu2->cpu2_ITLB LOAD         ACCESS:   80599787 HIT:   80599758 MISS:         29 MSHR_MERGE:         12
cpu2->cpu2_ITLB RFO          ACCESS:          0 HIT:          0 MISS:          0 MSHR_MERGE:          0
cpu2->cpu2_ITLB PREFETCH     ACCESS:          0 HIT:          0 MISS:          0 MSHR_MERGE:          0
cpu2->cpu2_ITLB WRITE        ACCESS:          0 HIT:          0 MISS:          0 MSHR_MERGE:          0
cpu2->cpu2_ITLB TRANSLATION  ACCESS:          0 HIT:          0 MISS:          0 MSHR_MERGE:          0
cpu2->cpu2_ITLB PREFETCH REQUESTED:          0 ISSUED:          0 USEFUL:          0 USELESS:          0
cpu2->cpu2_ITLB AVERAGE MISS LATENCY: 380.4 cycles
cpu2_ITLB COHERENCE INVALIDATIONS:          0
cpu2_ITLB COHERENCE WRITE-HIT OTHER-SHARER EVENTS:          0
cpu2_DTLB COHERENCE INVALIDATIONS:          0
cpu2_DTLB COHERENCE WRITE-HIT OTHER-SHARER EVENTS:          0
cpu1->cpu1_STLB TOTAL        ACCESS:    1111411 HIT:    1111243 MISS:        168 MSHR_MERGE:          0
cpu1->cpu1_STLB LOAD         ACCESS:    1111411 HIT:    1111243 MISS:        168 MSHR_MERGE:          0
cpu1->cpu1_STLB RFO          ACCESS:          0 HIT:          0 MISS:          0 MSHR_MERGE:          0
cpu1->cpu1_STLB PREFETCH     ACCESS:          0 HIT:          0 MISS:          0 MSHR_MERGE:          0
cpu1->cpu1_STLB WRITE        ACCESS:          0 HIT:          0 MISS:          0 MSHR_MERGE:          0
cpu1->cpu1_STLB TRANSLATION  ACCESS:          0 HIT:          0 MISS:          0 MSHR_MERGE:          0
cpu1->cpu1_STLB PREFETCH REQUESTED:          0 ISSUED:          0 USEFUL:          0 USELESS:          0
cpu1->cpu1_STLB AVERAGE MISS LATENCY: 634.9 cycles
cpu1_STLB COHERENCE INVALIDATIONS:          0
cpu1_STLB COHERENCE WRITE-HIT OTHER-SHARER EVENTS:          0
cpu1->cpu1_L2C TOTAL        ACCESS:    3312875 HIT:    3027711 MISS:     285164 MSHR_MERGE:          0
cpu1->cpu1_L2C LOAD         ACCESS:    3312678 HIT:    3027711 MISS:     284967 MSHR_MERGE:          0
cpu1->cpu1_L2C RFO          ACCESS:          0 HIT:          0 MISS:          0 MSHR_MERGE:          0
cpu1->cpu1_L2C PREFETCH     ACCESS:          0 HIT:          0 MISS:          0 MSHR_MERGE:          0
cpu1->cpu1_L2C WRITE        ACCESS:          0 HIT:          0 MISS:          0 MSHR_MERGE:          0
cpu1->cpu1_L2C TRANSLATION  ACCESS:        197 HIT:          0 MISS:        197 MSHR_MERGE:          0
cpu1->cpu1_L2C PREFETCH REQUESTED:          0 ISSUED:          0 USEFUL:          0 USELESS:          0
cpu1->cpu1_L2C AVERAGE MISS LATENCY: 147.5 cycles
cpu1_L2C COHERENCE INVALIDATIONS:          0
cpu1_L2C COHERENCE WRITE-HIT OTHER-SHARER EVENTS:          0
cpu1->cpu1_L1I TOTAL        ACCESS:   62477969 HIT:   59103934 MISS:    3374035 MSHR_MERGE:      61357
cpu1->cpu1_L1I LOAD         ACCESS:   62477969 HIT:   59103934 MISS:    3374035 MSHR_MERGE:      61357
cpu1->cpu1_L1I RFO          ACCESS:          0 HIT:          0 MISS:          0 MSHR_MERGE:          0
cpu1->cpu1_L1I PREFETCH     ACCESS:          0 HIT:          0 MISS:          0 MSHR_MERGE:          0
cpu1->cpu1_L1I WRITE        ACCESS:          0 HIT:          0 MISS:          0 MSHR_MERGE:          0
cpu1->cpu1_L1I TRANSLATION  ACCESS:          0 HIT:          0 MISS:          0 MSHR_MERGE:          0
cpu1->cpu1_L1I PREFETCH REQUESTED:          0 ISSUED:          0 USEFUL:          0 USELESS:          0
cpu1->cpu1_L1I AVERAGE MISS LATENCY: 19.94 cycles
cpu1_L1I COHERENCE INVALIDATIONS:          0
cpu1_L1I COHERENCE WRITE-HIT OTHER-SHARER EVENTS:          0
cpu1->cpu1_L1D TOTAL        ACCESS:        339 HIT:        142 MISS:        197 MSHR_MERGE:          0
cpu1->cpu1_L1D LOAD         ACCESS:          0 HIT:          0 MISS:          0 MSHR_MERGE:          0
cpu1->cpu1_L1D RFO          ACCESS:          0 HIT:          0 MISS:          0 MSHR_MERGE:          0
cpu1->cpu1_L1D PREFETCH     ACCESS:          0 HIT:          0 MISS:          0 MSHR_MERGE:          0
cpu1->cpu1_L1D WRITE        ACCESS:          0 HIT:          0 MISS:          0 MSHR_MERGE:          0
cpu1->cpu1_L1D TRANSLATION  ACCESS:        339 HIT:        142 MISS:        197 MSHR_MERGE:          0
cpu1->cpu1_L1D PREFETCH REQUESTED:          0 ISSUED:          0 USEFUL:          0 USELESS:          0
cpu1->cpu1_L1D AVERAGE MISS LATENCY: 193.8 cycles
cpu1_L1D COHERENCE INVALIDATIONS:          0
cpu1_L1D COHERENCE WRITE-HIT OTHER-SHARER EVENTS:          0
cpu1->cpu1_ITLB TOTAL        ACCESS:   60059562 HIT:   58888355 MISS:    1171207 MSHR_MERGE:      59796
cpu1->cpu1_ITLB LOAD         ACCESS:   60059562 HIT:   58888355 MISS:    1171207 MSHR_MERGE:      59796
cpu1->cpu1_ITLB RFO          ACCESS:          0 HIT:          0 MISS:          0 MSHR_MERGE:          0
cpu1->cpu1_ITLB PREFETCH     ACCESS:          0 HIT:          0 MISS:          0 MSHR_MERGE:          0
cpu1->cpu1_ITLB WRITE        ACCESS:          0 HIT:          0 MISS:          0 MSHR_MERGE:          0
cpu1->cpu1_ITLB TRANSLATION  ACCESS:          0 HIT:          0 MISS:          0 MSHR_MERGE:          0
cpu1->cpu1_ITLB PREFETCH REQUESTED:          0 ISSUED:          0 USEFUL:          0 USELESS:          0
cpu1->cpu1_ITLB AVERAGE MISS LATENCY: 4.096 cycles
cpu1_ITLB COHERENCE INVALIDATIONS:          0
cpu1_ITLB COHERENCE WRITE-HIT OTHER-SHARER EVENTS:          0
cpu1_DTLB COHERENCE INVALIDATIONS:          0
cpu1_DTLB COHERENCE WRITE-HIT OTHER-SHARER EVENTS:          0
cpu0->cpu0_STLB TOTAL        ACCESS:    3021978 HIT:    3009034 MISS:      12944 MSHR_MERGE:          0
cpu0->cpu0_STLB LOAD         ACCESS:    3021978 HIT:    3009034 MISS:      12944 MSHR_MERGE:          0
cpu0->cpu0_STLB RFO          ACCESS:          0 HIT:          0 MISS:          0 MSHR_MERGE:          0
cpu0->cpu0_STLB PREFETCH     ACCESS:          0 HIT:          0 MISS:          0 MSHR_MERGE:          0
cpu0->cpu0_STLB WRITE        ACCESS:          0 HIT:          0 MISS:          0 MSHR_MERGE:          0
cpu0->cpu0_STLB TRANSLATION  ACCESS:          0 HIT:          0 MISS:          0 MSHR_MERGE:          0
cpu0->cpu0_STLB PREFETCH REQUESTED:          0 ISSUED:          0 USEFUL:          0 USELESS:          0
cpu0->cpu0_STLB AVERAGE MISS LATENCY: 242 cycles
cpu0_STLB COHERENCE INVALIDATIONS:          0
cpu0_STLB COHERENCE WRITE-HIT OTHER-SHARER EVENTS:          0
cpu0->cpu0_L2C TOTAL        ACCESS:    4709844 HIT:    4296988 MISS:     412856 MSHR_MERGE:          0
cpu0->cpu0_L2C LOAD         ACCESS:    3759441 HIT:    3412601 MISS:     346840 MSHR_MERGE:          0
cpu0->cpu0_L2C RFO          ACCESS:     343043 HIT:     291057 MISS:      51986 MSHR_MERGE:          0
cpu0->cpu0_L2C PREFETCH     ACCESS:          0 HIT:          0 MISS:          0 MSHR_MERGE:          0
cpu0->cpu0_L2C WRITE        ACCESS:     579128 HIT:     578848 MISS:        280 MSHR_MERGE:          0
cpu0->cpu0_L2C TRANSLATION  ACCESS:      28232 HIT:      14482 MISS:      13750 MSHR_MERGE:          0
cpu0->cpu0_L2C PREFETCH REQUESTED:          0 ISSUED:          0 USEFUL:          0 USELESS:          0
cpu0->cpu0_L2C AVERAGE MISS LATENCY: 166.3 cycles
cpu0_L2C COHERENCE INVALIDATIONS:          0
cpu0_L2C COHERENCE WRITE-HIT OTHER-SHARER EVENTS:          0
cpu0->cpu0_L1I TOTAL        ACCESS:   25234466 HIT:   25234449 MISS:         17 MSHR_MERGE:          4
cpu0->cpu0_L1I LOAD         ACCESS:   25234466 HIT:   25234449 MISS:         17 MSHR_MERGE:          4
cpu0->cpu0_L1I RFO          ACCESS:          0 HIT:          0 MISS:          0 MSHR_MERGE:          0
cpu0->cpu0_L1I PREFETCH     ACCESS:          0 HIT:          0 MISS:          0 MSHR_MERGE:          0
cpu0->cpu0_L1I WRITE        ACCESS:          0 HIT:          0 MISS:          0 MSHR_MERGE:          0
cpu0->cpu0_L1I TRANSLATION  ACCESS:          0 HIT:          0 MISS:          0 MSHR_MERGE:          0
cpu0->cpu0_L1I PREFETCH REQUESTED:          0 ISSUED:          0 USEFUL:          0 USELESS:          0
cpu0->cpu0_L1I AVERAGE MISS LATENCY: 239.1 cycles
cpu0_L1I COHERENCE INVALIDATIONS:          0
cpu0_L1I COHERENCE WRITE-HIT OTHER-SHARER EVENTS:          0
cpu0->cpu0_L1D TOTAL        ACCESS:   63856592 HIT:   59641766 MISS:    4214826 MSHR_MERGE:      83636
cpu0->cpu0_L1D LOAD         ACCESS:   16957168 HIT:   13184694 MISS:    3772474 MSHR_MERGE:      12956
cpu0->cpu0_L1D RFO          ACCESS:          0 HIT:          0 MISS:          0 MSHR_MERGE:          0
cpu0->cpu0_L1D PREFETCH     ACCESS:          0 HIT:          0 MISS:          0 MSHR_MERGE:          0
cpu0->cpu0_L1D WRITE        ACCESS:   46868044 HIT:   46453931 MISS:     414113 MSHR_MERGE:      70673
cpu0->cpu0_L1D TRANSLATION  ACCESS:      31380 HIT:       3141 MISS:      28239 MSHR_MERGE:          7
cpu0->cpu0_L1D PREFETCH REQUESTED:          0 ISSUED:          0 USEFUL:          0 USELESS:          0
cpu0->cpu0_L1D AVERAGE MISS LATENCY: 23.92 cycles
cpu0_L1D COHERENCE INVALIDATIONS:          0
cpu0_L1D COHERENCE WRITE-HIT OTHER-SHARER EVENTS:          0
cpu0->cpu0_ITLB TOTAL        ACCESS:   22735098 HIT:   22735098 MISS:          0 MSHR_MERGE:          0
cpu0->cpu0_ITLB LOAD         ACCESS:   22735098 HIT:   22735098 MISS:          0 MSHR_MERGE:          0
cpu0->cpu0_ITLB RFO          ACCESS:          0 HIT:          0 MISS:          0 MSHR_MERGE:          0
cpu0->cpu0_ITLB PREFETCH     ACCESS:          0 HIT:          0 MISS:          0 MSHR_MERGE:          0
cpu0->cpu0_ITLB WRITE        ACCESS:          0 HIT:          0 MISS:          0 MSHR_MERGE:          0
cpu0->cpu0_ITLB TRANSLATION  ACCESS:          0 HIT:          0 MISS:          0 MSHR_MERGE:          0
cpu0->cpu0_ITLB PREFETCH REQUESTED:          0 ISSUED:          0 USEFUL:          0 USELESS:          0
cpu0->cpu0_ITLB AVERAGE MISS LATENCY: - cycles
cpu0_ITLB COHERENCE INVALIDATIONS:          0
cpu0_ITLB COHERENCE WRITE-HIT OTHER-SHARER EVENTS:          0
cpu0->cpu0_DTLB TOTAL        ACCESS:   62018568 HIT:   58824386 MISS:    3194182 MSHR_MERGE:     172204
cpu0->cpu0_DTLB LOAD         ACCESS:   62018568 HIT:   58824386 MISS:    3194182 MSHR_MERGE:     172204
cpu0->cpu0_DTLB RFO          ACCESS:          0 HIT:          0 MISS:          0 MSHR_MERGE:          0
cpu0->cpu0_DTLB PREFETCH     ACCESS:          0 HIT:          0 MISS:          0 MSHR_MERGE:          0
cpu0->cpu0_DTLB WRITE        ACCESS:          0 HIT:          0 MISS:          0 MSHR_MERGE:          0
cpu0->cpu0_DTLB TRANSLATION  ACCESS:          0 HIT:          0 MISS:          0 MSHR_MERGE:          0
cpu0->cpu0_DTLB PREFETCH REQUESTED:          0 ISSUED:          0 USEFUL:          0 USELESS:          0
cpu0->cpu0_DTLB AVERAGE MISS LATENCY: 5.041 cycles
cpu0_DTLB COHERENCE INVALIDATIONS:          0
cpu0_DTLB COHERENCE WRITE-HIT OTHER-SHARER EVENTS:          0
cpu0->LLC TOTAL        ACCESS:     517710 HIT:     138159 MISS:     379551 MSHR_MERGE:          2
cpu0->LLC LOAD         ACCESS:     346840 HIT:      93815 MISS:     253025 MSHR_MERGE:          2
cpu0->LLC RFO          ACCESS:      51986 HIT:      14398 MISS:      37588 MSHR_MERGE:          0
cpu0->LLC PREFETCH     ACCESS:          0 HIT:          0 MISS:          0 MSHR_MERGE:          0
cpu0->LLC WRITE        ACCESS:     105134 HIT:      27204 MISS:      77930 MSHR_MERGE:          0
cpu0->LLC TRANSLATION  ACCESS:      13750 HIT:       2742 MISS:      11008 MSHR_MERGE:          0
cpu0->LLC PREFETCH REQUESTED:          0 ISSUED:          0 USEFUL:          0 USELESS:          0
cpu0->LLC AVERAGE MISS LATENCY: 264.6 cycles
cpu1->LLC TOTAL        ACCESS:     285164 HIT:      82101 MISS:     203063 MSHR_MERGE:          0
cpu1->LLC LOAD         ACCESS:     284967 HIT:      82101 MISS:     202866 MSHR_MERGE:          0
cpu1->LLC RFO          ACCESS:          0 HIT:          0 MISS:          0 MSHR_MERGE:          0
cpu1->LLC PREFETCH     ACCESS:          0 HIT:          0 MISS:          0 MSHR_MERGE:          0
cpu1->LLC WRITE        ACCESS:          0 HIT:          0 MISS:          0 MSHR_MERGE:          0
cpu1->LLC TRANSLATION  ACCESS:        197 HIT:          0 MISS:        197 MSHR_MERGE:          0
cpu1->LLC PREFETCH REQUESTED:          0 ISSUED:          0 USEFUL:          0 USELESS:          0
cpu1->LLC AVERAGE MISS LATENCY: 494.7 cycles
cpu2->LLC TOTAL        ACCESS:         54 HIT:          7 MISS:         47 MSHR_MERGE:          0
cpu2->LLC LOAD         ACCESS:         34 HIT:          7 MISS:         27 MSHR_MERGE:          0
cpu2->LLC RFO          ACCESS:          0 HIT:          0 MISS:          0 MSHR_MERGE:          0
cpu2->LLC PREFETCH     ACCESS:          0 HIT:          0 MISS:          0 MSHR_MERGE:          0
cpu2->LLC WRITE        ACCESS:          0 HIT:          0 MISS:          0 MSHR_MERGE:          0
cpu2->LLC TRANSLATION  ACCESS:         20 HIT:          0 MISS:         20 MSHR_MERGE:          0
cpu2->LLC PREFETCH REQUESTED:          0 ISSUED:          0 USEFUL:          0 USELESS:          0
cpu2->LLC AVERAGE MISS LATENCY: 2.137e+06 cycles
cpu3->LLC TOTAL        ACCESS:         54 HIT:          0 MISS:         54 MSHR_MERGE:          0
cpu3->LLC LOAD         ACCESS:         34 HIT:          0 MISS:         34 MSHR_MERGE:          0
cpu3->LLC RFO          ACCESS:          0 HIT:          0 MISS:          0 MSHR_MERGE:          0
cpu3->LLC PREFETCH     ACCESS:          0 HIT:          0 MISS:          0 MSHR_MERGE:          0
cpu3->LLC WRITE        ACCESS:          0 HIT:          0 MISS:          0 MSHR_MERGE:          0
cpu3->LLC TRANSLATION  ACCESS:         20 HIT:          0 MISS:         20 MSHR_MERGE:          0
cpu3->LLC PREFETCH REQUESTED:          0 ISSUED:          0 USEFUL:          0 USELESS:          0
cpu3->LLC AVERAGE MISS LATENCY: 1.86e+06 cycles
LLC COHERENCE INVALIDATIONS:       5622
LLC COHERENCE WRITE-HIT OTHER-SHARER EVENTS:       5622

DRAM Statistics

Channel 0 RQ ROW_BUFFER_HIT:       2133
  ROW_BUFFER_MISS:     502538
  AVG DBUS CONGESTED CYCLE: 13.41
Channel 0 WQ ROW_BUFFER_HIT:      19576
  ROW_BUFFER_MISS:      83298
  FULL:          0
Channel 0 REFRESHES ISSUED:      13546

VMEM ALIASED FILLS (cross-CPU shared-page hits): 3511
