[VMEM] WARNING: physical memory size is smaller than virtual memory size.

*** ChampSim Multicore Out-of-Order Simulator ***
Warmup Instructions: 50000000
Simulation Instructions: 100000000
Number of CPUs: 4
Page size: 4096

Off-chip DRAM Size: 16 GiB Channels: 1 Width: 64-bit Data Rate: 3205 MT/s
Heartbeat CPU 2 instructions: 10000001 cycles: 2509382 heartbeat IPC: 3.985 cumulative IPC: 3.985 (Simulation time: 00 hr 03 min 48 sec)
Heartbeat CPU 3 instructions: 10000002 cycles: 2509495 heartbeat IPC: 3.985 cumulative IPC: 3.985 (Simulation time: 00 hr 03 min 48 sec)
Heartbeat CPU 0 instructions: 10000000 cycles: 3014783 heartbeat IPC: 3.317 cumulative IPC: 3.317 (Simulation time: 00 hr 04 min 28 sec)
Heartbeat CPU 1 instructions: 10000002 cycles: 4159300 heartbeat IPC: 2.404 cumulative IPC: 2.404 (Simulation time: 00 hr 05 min 52 sec)
Heartbeat CPU 2 instructions: 20000001 cycles: 5009382 heartbeat IPC: 4 cumulative IPC: 3.993 (Simulation time: 00 hr 07 min 01 sec)
Heartbeat CPU 3 instructions: 20000002 cycles: 5009495 heartbeat IPC: 4 cumulative IPC: 3.992 (Simulation time: 00 hr 07 min 01 sec)
Heartbeat CPU 2 instructions: 30000001 cycles: 7509382 heartbeat IPC: 4 cumulative IPC: 3.995 (Simulation time: 00 hr 10 min 45 sec)
Heartbeat CPU 3 instructions: 30000002 cycles: 7509495 heartbeat IPC: 4 cumulative IPC: 3.995 (Simulation time: 00 hr 10 min 45 sec)
Heartbeat CPU 1 instructions: 20000004 cycles: 7836699 heartbeat IPC: 2.719 cumulative IPC: 2.552 (Simulation time: 00 hr 11 min 09 sec)
Heartbeat CPU 2 instructions: 40000001 cycles: 10009382 heartbeat IPC: 4 cumulative IPC: 3.996 (Simulation time: 00 hr 14 min 12 sec)
Heartbeat CPU 3 instructions: 40000002 cycles: 10009495 heartbeat IPC: 4 cumulative IPC: 3.996 (Simulation time: 00 hr 14 min 12 sec)
Heartbeat CPU 1 instructions: 30000005 cycles: 11536487 heartbeat IPC: 2.703 cumulative IPC: 2.6 (Simulation time: 00 hr 16 min 09 sec)
Heartbeat CPU 2 instructions: 50000001 cycles: 12509382 heartbeat IPC: 4 cumulative IPC: 3.997 (Simulation time: 00 hr 17 min 20 sec)
Warmup finished CPU 2 instructions: 50000001 cycles: 12509382 cumulative IPC: 3.997 (Simulation time: 00 hr 17 min 20 sec)
Heartbeat CPU 3 instructions: 50000002 cycles: 12509495 heartbeat IPC: 4 cumulative IPC: 3.997 (Simulation time: 00 hr 17 min 20 sec)
Warmup finished CPU 3 instructions: 50000002 cycles: 12509495 cumulative IPC: 3.997 (Simulation time: 00 hr 17 min 20 sec)
Heartbeat CPU 0 instructions: 20000000 cycles: 14017065 heartbeat IPC: 0.9089 cumulative IPC: 1.427 (Simulation time: 00 hr 19 min 05 sec)
Heartbeat CPU 2 instructions: 60000001 cycles: 15009382 heartbeat IPC: 4 cumulative IPC: 3.997 (Simulation time: 00 hr 20 min 42 sec)
Heartbeat CPU 3 instructions: 60000002 cycles: 15009495 heartbeat IPC: 4 cumulative IPC: 3.997 (Simulation time: 00 hr 20 min 42 sec)
Heartbeat CPU 1 instructions: 40000006 cycles: 15233819 heartbeat IPC: 2.705 cumulative IPC: 2.626 (Simulation time: 00 hr 20 min 59 sec)
Heartbeat CPU 2 instructions: 70000001 cycles: 17509382 heartbeat IPC: 4 cumulative IPC: 3.998 (Simulation time: 00 hr 24 min 01 sec)
Heartbeat CPU 3 instructions: 70000002 cycles: 17509495 heartbeat IPC: 4 cumulative IPC: 3.998 (Simulation time: 00 hr 24 min 01 sec)
Warmup finished CPU 1 instructions: 50000003 cycles: 18952662 cumulative IPC: 2.638 (Simulation time: 00 hr 25 min 51 sec)
Heartbeat CPU 1 instructions: 50000007 cycles: 18952663 heartbeat IPC: 2.689 cumulative IPC: 2.638 (Simulation time: 00 hr 25 min 51 sec)
Heartbeat CPU 2 instructions: 80000001 cycles: 20009382 heartbeat IPC: 4 cumulative IPC: 3.998 (Simulation time: 00 hr 27 min 22 sec)
Heartbeat CPU 3 instructions: 80000002 cycles: 20009495 heartbeat IPC: 4 cumulative IPC: 3.998 (Simulation time: 00 hr 27 min 22 sec)
Heartbeat CPU 2 instructions: 90000001 cycles: 22509382 heartbeat IPC: 4 cumulative IPC: 3.998 (Simulation time: 00 hr 30 min 51 sec)
Heartbeat CPU 3 instructions: 90000002 cycles: 22509495 heartbeat IPC: 4 cumulative IPC: 3.998 (Simulation time: 00 hr 30 min 51 sec)
Heartbeat CPU 1 instructions: 60000010 cycles: 22575962 heartbeat IPC: 2.76 cumulative IPC: 2.658 (Simulation time: 00 hr 30 min 56 sec)
Heartbeat CPU 2 instructions: 100000001 cycles: 25009382 heartbeat IPC: 4 cumulative IPC: 3.998 (Simulation time: 00 hr 34 min 26 sec)
Heartbeat CPU 3 instructions: 100000002 cycles: 25009495 heartbeat IPC: 4 cumulative IPC: 3.998 (Simulation time: 00 hr 34 min 26 sec)
Heartbeat CPU 1 instructions: 70000012 cycles: 26271969 heartbeat IPC: 2.706 cumulative IPC: 2.664 (Simulation time: 00 hr 36 min 06 sec)
Heartbeat CPU 2 instructions: 110000001 cycles: 27509382 heartbeat IPC: 4 cumulative IPC: 3.999 (Simulation time: 00 hr 37 min 45 sec)
Heartbeat CPU 3 instructions: 110000002 cycles: 27509495 heartbeat IPC: 4 cumulative IPC: 3.999 (Simulation time: 00 hr 37 min 45 sec)
Heartbeat CPU 0 instructions: 30000000 cycles: 29198263 heartbeat IPC: 0.6587 cumulative IPC: 1.027 (Simulation time: 00 hr 39 min 55 sec)
Heartbeat CPU 1 instructions: 80000012 cycles: 29961143 heartbeat IPC: 2.711 cumulative IPC: 2.67 (Simulation time: 00 hr 41 min 09 sec)
Heartbeat CPU 2 instructions: 120000001 cycles: 30009382 heartbeat IPC: 4 cumulative IPC: 3.999 (Simulation time: 00 hr 41 min 14 sec)
Heartbeat CPU 3 instructions: 120000002 cycles: 30009495 heartbeat IPC: 4 cumulative IPC: 3.999 (Simulation time: 00 hr 41 min 14 sec)
Heartbeat CPU 2 instructions: 130000001 cycles: 32509382 heartbeat IPC: 4 cumulative IPC: 3.999 (Simulation time: 00 hr 44 min 23 sec)
Heartbeat CPU 3 instructions: 130000002 cycles: 32509495 heartbeat IPC: 4 cumulative IPC: 3.999 (Simulation time: 00 hr 44 min 23 sec)
Heartbeat CPU 1 instructions: 90000015 cycles: 33624782 heartbeat IPC: 2.73 cumulative IPC: 2.677 (Simulation time: 00 hr 46 min 01 sec)
Heartbeat CPU 2 instructions: 140000001 cycles: 35009382 heartbeat IPC: 4 cumulative IPC: 3.999 (Simulation time: 00 hr 47 min 51 sec)
Heartbeat CPU 3 instructions: 140000002 cycles: 35009495 heartbeat IPC: 4 cumulative IPC: 3.999 (Simulation time: 00 hr 47 min 51 sec)
Heartbeat CPU 1 instructions: 100000016 cycles: 37300313 heartbeat IPC: 2.721 cumulative IPC: 2.681 (Simulation time: 00 hr 50 min 50 sec)
Heartbeat CPU 2 instructions: 150000001 cycles: 37509382 heartbeat IPC: 4 cumulative IPC: 3.999 (Simulation time: 00 hr 51 min 05 sec)
Heartbeat CPU 3 instructions: 150000002 cycles: 37509495 heartbeat IPC: 4 cumulative IPC: 3.999 (Simulation time: 00 hr 51 min 05 sec)
Heartbeat CPU 2 instructions: 160000001 cycles: 40009382 heartbeat IPC: 4 cumulative IPC: 3.999 (Simulation time: 00 hr 54 min 04 sec)
Heartbeat CPU 3 instructions: 160000002 cycles: 40009495 heartbeat IPC: 4 cumulative IPC: 3.999 (Simulation time: 00 hr 54 min 04 sec)
Heartbeat CPU 1 instructions: 110000016 cycles: 40972824 heartbeat IPC: 2.723 cumulative IPC: 2.685 (Simulation time: 00 hr 55 min 10 sec)
Heartbeat CPU 2 instructions: 170000001 cycles: 42509382 heartbeat IPC: 4 cumulative IPC: 3.999 (Simulation time: 00 hr 56 min 56 sec)
Heartbeat CPU 3 instructions: 170000002 cycles: 42509495 heartbeat IPC: 4 cumulative IPC: 3.999 (Simulation time: 00 hr 56 min 56 sec)
Heartbeat CPU 0 instructions: 40000000 cycles: 44685693 heartbeat IPC: 0.6457 cumulative IPC: 0.8951 (Simulation time: 00 hr 59 min 31 sec)
Heartbeat CPU 1 instructions: 120000018 cycles: 44703087 heartbeat IPC: 2.681 cumulative IPC: 2.684 (Simulation time: 00 hr 59 min 33 sec)
Heartbeat CPU 2 instructions: 180000001 cycles: 45009382 heartbeat IPC: 4 cumulative IPC: 3.999 (Simulation time: 01 hr 00 min 08 sec)
Heartbeat CPU 3 instructions: 180000002 cycles: 45009495 heartbeat IPC: 4 cumulative IPC: 3.999 (Simulation time: 01 hr 00 min 08 sec)
Heartbeat CPU 2 instructions: 190000001 cycles: 47509382 heartbeat IPC: 4 cumulative IPC: 3.999 (Simulation time: 01 hr 03 min 42 sec)
Heartbeat CPU 3 instructions: 190000002 cycles: 47509495 heartbeat IPC: 4 cumulative IPC: 3.999 (Simulation time: 01 hr 03 min 42 sec)
Heartbeat CPU 1 instructions: 130000020 cycles: 48396458 heartbeat IPC: 2.708 cumulative IPC: 2.686 (Simulation time: 01 hr 05 min 13 sec)
Heartbeat CPU 2 instructions: 200000001 cycles: 50009382 heartbeat IPC: 4 cumulative IPC: 3.999 (Simulation time: 01 hr 07 min 32 sec)
Heartbeat CPU 3 instructions: 200000002 cycles: 50009495 heartbeat IPC: 4 cumulative IPC: 3.999 (Simulation time: 01 hr 07 min 32 sec)
Heartbeat CPU 1 instructions: 140000023 cycles: 51968841 heartbeat IPC: 2.799 cumulative IPC: 2.694 (Simulation time: 01 hr 10 min 03 sec)
Heartbeat CPU 2 instructions: 210000001 cycles: 52509382 heartbeat IPC: 4 cumulative IPC: 3.999 (Simulation time: 01 hr 10 min 48 sec)
Heartbeat CPU 3 instructions: 210000002 cycles: 52509495 heartbeat IPC: 4 cumulative IPC: 3.999 (Simulation time: 01 hr 10 min 48 sec)
Heartbeat CPU 2 instructions: 220000001 cycles: 55009382 heartbeat IPC: 4 cumulative IPC: 3.999 (Simulation time: 01 hr 14 min 22 sec)
Heartbeat CPU 3 instructions: 220000002 cycles: 55009495 heartbeat IPC: 4 cumulative IPC: 3.999 (Simulation time: 01 hr 14 min 22 sec)
Heartbeat CPU 1 instructions: 150000023 cycles: 55927722 heartbeat IPC: 2.526 cumulative IPC: 2.682 (Simulation time: 01 hr 15 min 46 sec)
Heartbeat CPU 2 instructions: 230000001 cycles: 57509382 heartbeat IPC: 4 cumulative IPC: 3.999 (Simulation time: 01 hr 17 min 46 sec)
Heartbeat CPU 3 instructions: 230000002 cycles: 57509495 heartbeat IPC: 4 cumulative IPC: 3.999 (Simulation time: 01 hr 17 min 46 sec)
Heartbeat CPU 1 instructions: 160000023 cycles: 59763846 heartbeat IPC: 2.607 cumulative IPC: 2.677 (Simulation time: 01 hr 20 min 55 sec)
Heartbeat CPU 2 instructions: 240000001 cycles: 60009382 heartbeat IPC: 4 cumulative IPC: 3.999 (Simulation time: 01 hr 21 min 13 sec)
Heartbeat CPU 3 instructions: 240000002 cycles: 60009495 heartbeat IPC: 4 cumulative IPC: 3.999 (Simulation time: 01 hr 21 min 13 sec)
Heartbeat CPU 0 instructions: 50000000 cycles: 60382315 heartbeat IPC: 0.6371 cumulative IPC: 0.8281 (Simulation time: 01 hr 21 min 38 sec)
Warmup finished CPU 0 instructions: 50000000 cycles: 60382315 cumulative IPC: 0.8281 (Simulation time: 01 hr 21 min 38 sec)
Warmup complete CPU 3 instructions: 241491282 cycles: 60382315 cumulative IPC: 3.999 (Simulation time: 01 hr 21 min 38 sec)
Warmup complete CPU 2 instructions: 241491733 cycles: 60382315 cumulative IPC: 3.999 (Simulation time: 01 hr 21 min 38 sec)
Warmup complete CPU 1 instructions: 161690863 cycles: 60382315 cumulative IPC: 2.678 (Simulation time: 01 hr 21 min 38 sec)
Warmup complete CPU 0 instructions: 50000000 cycles: 60382315 cumulative IPC: 0.8281 (Simulation time: 01 hr 21 min 38 sec)
Heartbeat CPU 2 instructions: 250000001 cycles: 62509382 heartbeat IPC: 4 cumulative IPC: 4 (Simulation time: 01 hr 24 min 14 sec)
Heartbeat CPU 3 instructions: 250000002 cycles: 62509495 heartbeat IPC: 4 cumulative IPC: 4 (Simulation time: 01 hr 24 min 14 sec)
Heartbeat CPU 1 instructions: 170000026 cycles: 64577691 heartbeat IPC: 2.077 cumulative IPC: 1.981 (Simulation time: 01 hr 26 min 57 sec)
Heartbeat CPU 2 instructions: 260000001 cycles: 65009382 heartbeat IPC: 4 cumulative IPC: 4 (Simulation time: 01 hr 27 min 38 sec)
Heartbeat CPU 3 instructions: 260000002 cycles: 65009495 heartbeat IPC: 4 cumulative IPC: 4 (Simulation time: 01 hr 27 min 38 sec)
Heartbeat CPU 2 instructions: 270000001 cycles: 67509382 heartbeat IPC: 4 cumulative IPC: 4 (Simulation time: 01 hr 30 min 38 sec)
Heartbeat CPU 3 instructions: 270000002 cycles: 67509495 heartbeat IPC: 4 cumulative IPC: 4 (Simulation time: 01 hr 30 min 38 sec)
Heartbeat CPU 1 instructions: 180000028 cycles: 69515750 heartbeat IPC: 2.025 cumulative IPC: 2.005 (Simulation time: 01 hr 33 min 14 sec)
Heartbeat CPU 2 instructions: 280000001 cycles: 70009382 heartbeat IPC: 4 cumulative IPC: 4 (Simulation time: 01 hr 33 min 57 sec)
Heartbeat CPU 3 instructions: 280000002 cycles: 70009495 heartbeat IPC: 4 cumulative IPC: 4 (Simulation time: 01 hr 33 min 57 sec)
Heartbeat CPU 2 instructions: 290000001 cycles: 72509382 heartbeat IPC: 4 cumulative IPC: 4 (Simulation time: 01 hr 37 min 24 sec)
Heartbeat CPU 3 instructions: 290000002 cycles: 72509495 heartbeat IPC: 4 cumulative IPC: 4 (Simulation time: 01 hr 37 min 24 sec)
Heartbeat CPU 1 instructions: 190000028 cycles: 74308083 heartbeat IPC: 2.087 cumulative IPC: 2.033 (Simulation time: 01 hr 39 min 46 sec)
Heartbeat CPU 2 instructions: 300000001 cycles: 75009382 heartbeat IPC: 4 cumulative IPC: 4 (Simulation time: 01 hr 40 min 38 sec)
Heartbeat CPU 3 instructions: 300000002 cycles: 75009495 heartbeat IPC: 4 cumulative IPC: 4 (Simulation time: 01 hr 40 min 38 sec)
Heartbeat CPU 2 instructions: 310000001 cycles: 77509382 heartbeat IPC: 4 cumulative IPC: 4 (Simulation time: 01 hr 43 min 52 sec)
Heartbeat CPU 3 instructions: 310000002 cycles: 77509495 heartbeat IPC: 4 cumulative IPC: 4 (Simulation time: 01 hr 43 min 52 sec)
Heartbeat CPU 1 instructions: 200000028 cycles: 78979179 heartbeat IPC: 2.141 cumulative IPC: 2.06 (Simulation time: 01 hr 45 min 46 sec)
Heartbeat CPU 0 instructions: 60000004 cycles: 79957114 heartbeat IPC: 0.5109 cumulative IPC: 0.5109 (Simulation time: 01 hr 47 min 01 sec)
Heartbeat CPU 2 instructions: 320000001 cycles: 80009382 heartbeat IPC: 4 cumulative IPC: 4 (Simulation time: 01 hr 47 min 05 sec)
Heartbeat CPU 3 instructions: 320000002 cycles: 80009495 heartbeat IPC: 4 cumulative IPC: 4 (Simulation time: 01 hr 47 min 05 sec)
Heartbeat CPU 2 instructions: 330000001 cycles: 82509382 heartbeat IPC: 4 cumulative IPC: 4 (Simulation time: 01 hr 50 min 09 sec)
Heartbeat CPU 3 instructions: 330000002 cycles: 82509495 heartbeat IPC: 4 cumulative IPC: 4 (Simulation time: 01 hr 50 min 09 sec)
Heartbeat CPU 1 instructions: 210000031 cycles: 83793071 heartbeat IPC: 2.077 cumulative IPC: 2.064 (Simulation time: 01 hr 51 min 42 sec)
Heartbeat CPU 2 instructions: 340000001 cycles: 85009382 heartbeat IPC: 4 cumulative IPC: 4 (Simulation time: 01 hr 53 min 09 sec)
Heartbeat CPU 3 instructions: 340000002 cycles: 85009495 heartbeat IPC: 4 cumulative IPC: 4 (Simulation time: 01 hr 53 min 09 sec)
Simulation finished CPU 3 instructions: 100000000 cycles: 25000000 cumulative IPC: 4 (Simulation time: 01 hr 53 min 39 sec)
Simulation finished CPU 2 instructions: 100000000 cycles: 25000000 cumulative IPC: 4 (Simulation time: 01 hr 53 min 39 sec)
Heartbeat CPU 2 instructions: 350000001 cycles: 87509382 heartbeat IPC: 4 cumulative IPC: 4 (Simulation time: 01 hr 56 min 15 sec)
Heartbeat CPU 3 instructions: 350000002 cycles: 87509495 heartbeat IPC: 4 cumulative IPC: 4 (Simulation time: 01 hr 56 min 15 sec)
Heartbeat CPU 1 instructions: 220000031 cycles: 88700857 heartbeat IPC: 2.038 cumulative IPC: 2.059 (Simulation time: 01 hr 57 min 43 sec)
Heartbeat CPU 2 instructions: 360000001 cycles: 90009382 heartbeat IPC: 4 cumulative IPC: 4 (Simulation time: 01 hr 59 min 15 sec)
Heartbeat CPU 3 instructions: 360000002 cycles: 90009495 heartbeat IPC: 4 cumulative IPC: 4 (Simulation time: 01 hr 59 min 16 sec)
Heartbeat CPU 2 instructions: 370000001 cycles: 92509382 heartbeat IPC: 4 cumulative IPC: 4 (Simulation time: 02 hr 02 min 27 sec)
Heartbeat CPU 3 instructions: 370000002 cycles: 92509495 heartbeat IPC: 4 cumulative IPC: 4 (Simulation time: 02 hr 02 min 27 sec)
Heartbeat CPU 1 instructions: 230000034 cycles: 93536792 heartbeat IPC: 2.068 cumulative IPC: 2.06 (Simulation time: 02 hr 03 min 42 sec)
Heartbeat CPU 2 instructions: 380000001 cycles: 95009382 heartbeat IPC: 4 cumulative IPC: 4 (Simulation time: 02 hr 05 min 31 sec)
Heartbeat CPU 3 instructions: 380000002 cycles: 95009495 heartbeat IPC: 4 cumulative IPC: 4 (Simulation time: 02 hr 05 min 31 sec)
Heartbeat CPU 2 instructions: 390000001 cycles: 97509382 heartbeat IPC: 4 cumulative IPC: 4 (Simulation time: 02 hr 08 min 45 sec)
Heartbeat CPU 3 instructions: 390000002 cycles: 97509495 heartbeat IPC: 4 cumulative IPC: 4 (Simulation time: 02 hr 08 min 45 sec)
Heartbeat CPU 1 instructions: 240000035 cycles: 98430111 heartbeat IPC: 2.044 cumulative IPC: 2.058 (Simulation time: 02 hr 09 min 46 sec)
Heartbeat CPU 0 instructions: 70000005 cycles: 99201862 heartbeat IPC: 0.5196 cumulative IPC: 0.5152 (Simulation time: 02 hr 10 min 36 sec)
Heartbeat CPU 2 instructions: 400000001 cycles: 100009382 heartbeat IPC: 4 cumulative IPC: 4 (Simulation time: 02 hr 11 min 29 sec)
Heartbeat CPU 3 instructions: 400000002 cycles: 100009495 heartbeat IPC: 4 cumulative IPC: 4 (Simulation time: 02 hr 11 min 29 sec)
Heartbeat CPU 2 instructions: 410000001 cycles: 102509382 heartbeat IPC: 4 cumulative IPC: 4 (Simulation time: 02 hr 14 min 15 sec)
Heartbeat CPU 3 instructions: 410000004 cycles: 102509624 heartbeat IPC: 4 cumulative IPC: 4 (Simulation time: 02 hr 14 min 15 sec)
Heartbeat CPU 1 instructions: 250000035 cycles: 103432135 heartbeat IPC: 1.999 cumulative IPC: 2.051 (Simulation time: 02 hr 15 min 15 sec)
Heartbeat CPU 2 instructions: 420000001 cycles: 105009504 heartbeat IPC: 4 cumulative IPC: 4 (Simulation time: 02 hr 16 min 59 sec)
Heartbeat CPU 3 instructions: 420000004 cycles: 105009624 heartbeat IPC: 4 cumulative IPC: 4 (Simulation time: 02 hr 16 min 59 sec)
Heartbeat CPU 2 instructions: 430000001 cycles: 107509504 heartbeat IPC: 4 cumulative IPC: 4 (Simulation time: 02 hr 19 min 45 sec)
Heartbeat CPU 3 instructions: 430000004 cycles: 107509624 heartbeat IPC: 4 cumulative IPC: 4 (Simulation time: 02 hr 19 min 45 sec)
Heartbeat CPU 1 instructions: 260000038 cycles: 108497178 heartbeat IPC: 1.974 cumulative IPC: 2.043 (Simulation time: 02 hr 20 min 49 sec)
Simulation finished CPU 1 instructions: 100000003 cycles: 48982899 cumulative IPC: 2.042 (Simulation time: 02 hr 21 min 47 sec)
Heartbeat CPU 2 instructions: 440000001 cycles: 110009504 heartbeat IPC: 4 cumulative IPC: 4 (Simulation time: 02 hr 22 min 30 sec)
Heartbeat CPU 3 instructions: 440000004 cycles: 110009624 heartbeat IPC: 4 cumulative IPC: 4 (Simulation time: 02 hr 22 min 30 sec)
Heartbeat CPU 2 instructions: 450000001 cycles: 112509504 heartbeat IPC: 4 cumulative IPC: 4 (Simulation time: 02 hr 25 min 15 sec)
Heartbeat CPU 3 instructions: 450000004 cycles: 112509624 heartbeat IPC: 4 cumulative IPC: 4 (Simulation time: 02 hr 25 min 15 sec)
Heartbeat CPU 1 instructions: 270000040 cycles: 113468800 heartbeat IPC: 2.011 cumulative IPC: 2.04 (Simulation time: 02 hr 26 min 18 sec)
Heartbeat CPU 2 instructions: 460000001 cycles: 115009504 heartbeat IPC: 4 cumulative IPC: 4 (Simulation time: 02 hr 27 min 59 sec)
Heartbeat CPU 3 instructions: 460000004 cycles: 115009624 heartbeat IPC: 4 cumulative IPC: 4 (Simulation time: 02 hr 27 min 59 sec)
Heartbeat CPU 2 instructions: 470000001 cycles: 117509504 heartbeat IPC: 4 cumulative IPC: 4 (Simulation time: 02 hr 30 min 40 sec)
Heartbeat CPU 3 instructions: 470000004 cycles: 117509624 heartbeat IPC: 4 cumulative IPC: 4 (Simulation time: 02 hr 30 min 40 sec)
Heartbeat CPU 0 instructions: 80000009 cycles: 117860863 heartbeat IPC: 0.5359 cumulative IPC: 0.5219 (Simulation time: 02 hr 31 min 02 sec)
Heartbeat CPU 1 instructions: 280000042 cycles: 119501240 heartbeat IPC: 1.658 cumulative IPC: 2.001 (Simulation time: 02 hr 32 min 49 sec)
Heartbeat CPU 2 instructions: 480000001 cycles: 120009504 heartbeat IPC: 4 cumulative IPC: 4 (Simulation time: 02 hr 33 min 21 sec)
Heartbeat CPU 3 instructions: 480000004 cycles: 120009624 heartbeat IPC: 4 cumulative IPC: 4 (Simulation time: 02 hr 33 min 21 sec)
Heartbeat CPU 2 instructions: 490000001 cycles: 122509504 heartbeat IPC: 4 cumulative IPC: 4 (Simulation time: 02 hr 36 min 01 sec)
Heartbeat CPU 3 instructions: 490000004 cycles: 122509624 heartbeat IPC: 4 cumulative IPC: 4 (Simulation time: 02 hr 36 min 01 sec)
Heartbeat CPU 2 instructions: 500000001 cycles: 125009504 heartbeat IPC: 4 cumulative IPC: 4 (Simulation time: 02 hr 38 min 43 sec)
Heartbeat CPU 3 instructions: 500000004 cycles: 125009624 heartbeat IPC: 4 cumulative IPC: 4 (Simulation time: 02 hr 38 min 43 sec)
Heartbeat CPU 1 instructions: 290000042 cycles: 126213214 heartbeat IPC: 1.49 cumulative IPC: 1.949 (Simulation time: 02 hr 40 min 02 sec)
Heartbeat CPU 2 instructions: 510000001 cycles: 127509504 heartbeat IPC: 4 cumulative IPC: 4 (Simulation time: 02 hr 41 min 25 sec)
Heartbeat CPU 3 instructions: 510000004 cycles: 127509624 heartbeat IPC: 4 cumulative IPC: 4 (Simulation time: 02 hr 41 min 25 sec)
Heartbeat CPU 2 instructions: 520000001 cycles: 130009504 heartbeat IPC: 4 cumulative IPC: 4 (Simulation time: 02 hr 44 min 08 sec)
Heartbeat CPU 3 instructions: 520000004 cycles: 130009624 heartbeat IPC: 4 cumulative IPC: 4 (Simulation time: 02 hr 44 min 08 sec)
Heartbeat CPU 1 instructions: 300000043 cycles: 131293947 heartbeat IPC: 1.968 cumulative IPC: 1.95 (Simulation time: 02 hr 45 min 32 sec)
Heartbeat CPU 2 instructions: 530000001 cycles: 132509504 heartbeat IPC: 4 cumulative IPC: 4 (Simulation time: 02 hr 46 min 51 sec)
Heartbeat CPU 3 instructions: 530000004 cycles: 132509624 heartbeat IPC: 4 cumulative IPC: 4 (Simulation time: 02 hr 46 min 51 sec)
*** Reached end of trace: (3, "/home/harshraj/COALESCE-Hashed-Perceptron-Cache-Replacement-Policy/simulator/traces/barnes_4t3.champsimtrace")
Heartbeat CPU 2 instructions: 540000001 cycles: 135009504 heartbeat IPC: 4 cumulative IPC: 4 (Simulation time: 02 hr 49 min 36 sec)
Heartbeat CPU 3 instructions: 540000006 cycles: 135017630 heartbeat IPC: 3.987 cumulative IPC: 4 (Simulation time: 02 hr 49 min 36 sec)
Heartbeat CPU 1 instructions: 310000043 cycles: 136144177 heartbeat IPC: 2.062 cumulative IPC: 1.958 (Simulation time: 02 hr 50 min 51 sec)
Heartbeat CPU 0 instructions: 90000010 cycles: 137337434 heartbeat IPC: 0.5134 cumulative IPC: 0.5198 (Simulation time: 02 hr 52 min 10 sec)
Heartbeat CPU 2 instructions: 550000001 cycles: 137509504 heartbeat IPC: 4 cumulative IPC: 4 (Simulation time: 02 hr 52 min 21 sec)
Heartbeat CPU 3 instructions: 550000006 cycles: 137517630 heartbeat IPC: 4 cumulative IPC: 4 (Simulation time: 02 hr 52 min 22 sec)
*** Reached end of trace: (2, "/home/harshraj/COALESCE-Hashed-Perceptron-Cache-Replacement-Policy/simulator/traces/barnes_4t2.champsimtrace")
Heartbeat CPU 2 instructions: 560000001 cycles: 140016518 heartbeat IPC: 3.989 cumulative IPC: 4 (Simulation time: 02 hr 55 min 08 sec)
Heartbeat CPU 3 instructions: 560000006 cycles: 140017630 heartbeat IPC: 4 cumulative IPC: 4 (Simulation time: 02 hr 55 min 08 sec)
Heartbeat CPU 1 instructions: 320000046 cycles: 141291047 heartbeat IPC: 1.943 cumulative IPC: 1.957 (Simulation time: 02 hr 56 min 35 sec)
Heartbeat CPU 2 instructions: 570000001 cycles: 142516518 heartbeat IPC: 4 cumulative IPC: 4 (Simulation time: 02 hr 57 min 57 sec)
Heartbeat CPU 3 instructions: 570000006 cycles: 142517630 heartbeat IPC: 4 cumulative IPC: 4 (Simulation time: 02 hr 57 min 57 sec)
Heartbeat CPU 2 instructions: 580000001 cycles: 145016518 heartbeat IPC: 4 cumulative IPC: 4 (Simulation time: 03 hr 00 min 43 sec)
Heartbeat CPU 3 instructions: 580000006 cycles: 145017630 heartbeat IPC: 4 cumulative IPC: 4 (Simulation time: 03 hr 00 min 43 sec)
Heartbeat CPU 1 instructions: 330000048 cycles: 146363889 heartbeat IPC: 1.971 cumulative IPC: 1.958 (Simulation time: 03 hr 02 min 12 sec)
Heartbeat CPU 2 instructions: 590000001 cycles: 147516518 heartbeat IPC: 4 cumulative IPC: 4 (Simulation time: 03 hr 03 min 29 sec)
Heartbeat CPU 3 instructions: 590000006 cycles: 147517630 heartbeat IPC: 4 cumulative IPC: 4 (Simulation time: 03 hr 03 min 29 sec)
Heartbeat CPU 2 instructions: 600000001 cycles: 150016518 heartbeat IPC: 4 cumulative IPC: 4 (Simulation time: 03 hr 06 min 16 sec)
Heartbeat CPU 3 instructions: 600000006 cycles: 150017630 heartbeat IPC: 4 cumulative IPC: 4 (Simulation time: 03 hr 06 min 16 sec)
Heartbeat CPU 1 instructions: 340000051 cycles: 151158733 heartbeat IPC: 2.086 cumulative IPC: 1.964 (Simulation time: 03 hr 07 min 32 sec)
Heartbeat CPU 2 instructions: 610000001 cycles: 152516518 heartbeat IPC: 4 cumulative IPC: 4 (Simulation time: 03 hr 09 min 02 sec)
Heartbeat CPU 3 instructions: 610000006 cycles: 152517630 heartbeat IPC: 4 cumulative IPC: 4 (Simulation time: 03 hr 09 min 02 sec)
Heartbeat CPU 2 instructions: 620000001 cycles: 155016518 heartbeat IPC: 4 cumulative IPC: 4 (Simulation time: 03 hr 11 min 48 sec)
Heartbeat CPU 3 instructions: 620000006 cycles: 155017630 heartbeat IPC: 4 cumulative IPC: 4 (Simulation time: 03 hr 11 min 48 sec)
Heartbeat CPU 1 instructions: 350000052 cycles: 155604816 heartbeat IPC: 2.249 cumulative IPC: 1.978 (Simulation time: 03 hr 12 min 28 sec)
Heartbeat CPU 0 instructions: 100000014 cycles: 155811032 heartbeat IPC: 0.5413 cumulative IPC: 0.524 (Simulation time: 03 hr 12 min 41 sec)
Heartbeat CPU 2 instructions: 630000001 cycles: 157516518 heartbeat IPC: 4 cumulative IPC: 4 (Simulation time: 03 hr 14 min 35 sec)
Heartbeat CPU 3 instructions: 630000006 cycles: 157517630 heartbeat IPC: 4 cumulative IPC: 4 (Simulation time: 03 hr 14 min 36 sec)
Heartbeat CPU 2 instructions: 640000001 cycles: 160016518 heartbeat IPC: 4 cumulative IPC: 4 (Simulation time: 03 hr 17 min 24 sec)
Heartbeat CPU 3 instructions: 640000006 cycles: 160017630 heartbeat IPC: 4 cumulative IPC: 4 (Simulation time: 03 hr 17 min 24 sec)
Heartbeat CPU 1 instructions: 360000055 cycles: 160591626 heartbeat IPC: 2.005 cumulative IPC: 1.979 (Simulation time: 03 hr 18 min 04 sec)
Heartbeat CPU 2 instructions: 650000001 cycles: 162516518 heartbeat IPC: 4 cumulative IPC: 4 (Simulation time: 03 hr 20 min 14 sec)
Heartbeat CPU 3 instructions: 650000006 cycles: 162517630 heartbeat IPC: 4 cumulative IPC: 4 (Simulation time: 03 hr 20 min 14 sec)
Heartbeat CPU 2 instructions: 660000001 cycles: 165016518 heartbeat IPC: 4 cumulative IPC: 4 (Simulation time: 03 hr 23 min 01 sec)
Heartbeat CPU 3 instructions: 660000006 cycles: 165017630 heartbeat IPC: 4 cumulative IPC: 4 (Simulation time: 03 hr 23 min 01 sec)
Heartbeat CPU 1 instructions: 370000056 cycles: 165260476 heartbeat IPC: 2.142 cumulative IPC: 1.986 (Simulation time: 03 hr 23 min 17 sec)
Heartbeat CPU 2 instructions: 670000001 cycles: 167516518 heartbeat IPC: 4 cumulative IPC: 4 (Simulation time: 03 hr 25 min 50 sec)
Heartbeat CPU 3 instructions: 670000006 cycles: 167517630 heartbeat IPC: 4 cumulative IPC: 4 (Simulation time: 03 hr 25 min 50 sec)
Heartbeat CPU 2 instructions: 680000001 cycles: 170016518 heartbeat IPC: 4 cumulative IPC: 4 (Simulation time: 03 hr 28 min 37 sec)
Heartbeat CPU 3 instructions: 680000006 cycles: 170017630 heartbeat IPC: 4 cumulative IPC: 4 (Simulation time: 03 hr 28 min 37 sec)
Heartbeat CPU 1 instructions: 380000058 cycles: 170240352 heartbeat IPC: 2.008 cumulative IPC: 1.987 (Simulation time: 03 hr 28 min 52 sec)
Heartbeat CPU 2 instructions: 690000001 cycles: 172516518 heartbeat IPC: 4 cumulative IPC: 4 (Simulation time: 03 hr 31 min 22 sec)
Heartbeat CPU 3 instructions: 690000006 cycles: 172517630 heartbeat IPC: 4 cumulative IPC: 4 (Simulation time: 03 hr 31 min 22 sec)
Heartbeat CPU 0 instructions: 110000014 cycles: 172851276 heartbeat IPC: 0.5868 cumulative IPC: 0.5335 (Simulation time: 03 hr 31 min 44 sec)
Heartbeat CPU 2 instructions: 700000001 cycles: 175016518 heartbeat IPC: 4 cumulative IPC: 4 (Simulation time: 03 hr 34 min 10 sec)
Heartbeat CPU 3 instructions: 700000006 cycles: 175017630 heartbeat IPC: 4 cumulative IPC: 4 (Simulation time: 03 hr 34 min 10 sec)
Heartbeat CPU 1 instructions: 390000061 cycles: 175925981 heartbeat IPC: 1.759 cumulative IPC: 1.976 (Simulation time: 03 hr 35 min 09 sec)
Heartbeat CPU 2 instructions: 710000001 cycles: 177516518 heartbeat IPC: 4 cumulative IPC: 4 (Simulation time: 03 hr 36 min 56 sec)
Heartbeat CPU 3 instructions: 710000006 cycles: 177517630 heartbeat IPC: 4 cumulative IPC: 4 (Simulation time: 03 hr 36 min 56 sec)
Heartbeat CPU 2 instructions: 720000001 cycles: 180016518 heartbeat IPC: 4 cumulative IPC: 4 (Simulation time: 03 hr 39 min 41 sec)
Heartbeat CPU 3 instructions: 720000006 cycles: 180017630 heartbeat IPC: 4 cumulative IPC: 4 (Simulation time: 03 hr 39 min 41 sec)
Heartbeat CPU 1 instructions: 400000063 cycles: 181923064 heartbeat IPC: 1.667 cumulative IPC: 1.961 (Simulation time: 03 hr 41 min 48 sec)
Heartbeat CPU 2 instructions: 730000001 cycles: 182516518 heartbeat IPC: 4 cumulative IPC: 4 (Simulation time: 03 hr 42 min 28 sec)
Heartbeat CPU 3 instructions: 730000006 cycles: 182517630 heartbeat IPC: 4 cumulative IPC: 4 (Simulation time: 03 hr 42 min 28 sec)
Heartbeat CPU 2 instructions: 740000001 cycles: 185016518 heartbeat IPC: 4 cumulative IPC: 4 (Simulation time: 03 hr 45 min 14 sec)
Heartbeat CPU 3 instructions: 740000006 cycles: 185017630 heartbeat IPC: 4 cumulative IPC: 4 (Simulation time: 03 hr 45 min 14 sec)
Heartbeat CPU 1 instructions: 410000064 cycles: 187399531 heartbeat IPC: 1.826 cumulative IPC: 1.955 (Simulation time: 03 hr 47 min 54 sec)
Heartbeat CPU 2 instructions: 750000001 cycles: 187516518 heartbeat IPC: 4 cumulative IPC: 4 (Simulation time: 03 hr 48 min 02 sec)
Heartbeat CPU 3 instructions: 750000006 cycles: 187517630 heartbeat IPC: 4 cumulative IPC: 4 (Simulation time: 03 hr 48 min 02 sec)
Heartbeat CPU 0 instructions: 120000015 cycles: 189230019 heartbeat IPC: 0.6105 cumulative IPC: 0.5433 (Simulation time: 03 hr 50 min 00 sec)
Heartbeat CPU 2 instructions: 760000001 cycles: 190016518 heartbeat IPC: 4 cumulative IPC: 4 (Simulation time: 03 hr 51 min 00 sec)
Heartbeat CPU 3 instructions: 760000006 cycles: 190017630 heartbeat IPC: 4 cumulative IPC: 4 (Simulation time: 03 hr 51 min 00 sec)
Heartbeat CPU 2 instructions: 770000001 cycles: 192516518 heartbeat IPC: 4 cumulative IPC: 4 (Simulation time: 03 hr 53 min 54 sec)
Heartbeat CPU 3 instructions: 770000006 cycles: 192517630 heartbeat IPC: 4 cumulative IPC: 4 (Simulation time: 03 hr 53 min 54 sec)
Heartbeat CPU 2 instructions: 780000001 cycles: 195016518 heartbeat IPC: 4 cumulative IPC: 4 (Simulation time: 03 hr 56 min 41 sec)
Heartbeat CPU 3 instructions: 780000006 cycles: 195017630 heartbeat IPC: 4 cumulative IPC: 4 (Simulation time: 03 hr 56 min 41 sec)
Heartbeat CPU 1 instructions: 420000066 cycles: 195249606 heartbeat IPC: 1.274 cumulative IPC: 1.915 (Simulation time: 03 hr 56 min 56 sec)
Heartbeat CPU 2 instructions: 790000001 cycles: 197516518 heartbeat IPC: 4 cumulative IPC: 4 (Simulation time: 03 hr 59 min 32 sec)
Heartbeat CPU 3 instructions: 790000006 cycles: 197517630 heartbeat IPC: 4 cumulative IPC: 4 (Simulation time: 03 hr 59 min 32 sec)
Heartbeat CPU 2 instructions: 800000001 cycles: 200016518 heartbeat IPC: 4 cumulative IPC: 4 (Simulation time: 04 hr 02 min 33 sec)
Heartbeat CPU 3 instructions: 800000006 cycles: 200017630 heartbeat IPC: 4 cumulative IPC: 4 (Simulation time: 04 hr 02 min 33 sec)
Heartbeat CPU 1 instructions: 430000066 cycles: 201000657 heartbeat IPC: 1.739 cumulative IPC: 1.908 (Simulation time: 04 hr 03 min 45 sec)
Heartbeat CPU 0 instructions: 130000017 cycles: 201448156 heartbeat IPC: 0.8185 cumulative IPC: 0.5671 (Simulation time: 04 hr 04 min 16 sec)
Heartbeat CPU 2 instructions: 810000001 cycles: 202516518 heartbeat IPC: 4 cumulative IPC: 4 (Simulation time: 04 hr 05 min 33 sec)
Heartbeat CPU 3 instructions: 810000006 cycles: 202517630 heartbeat IPC: 4 cumulative IPC: 4 (Simulation time: 04 hr 05 min 33 sec)
Heartbeat CPU 2 instructions: 820000001 cycles: 205016518 heartbeat IPC: 4 cumulative IPC: 4 (Simulation time: 04 hr 08 min 36 sec)
Heartbeat CPU 3 instructions: 820000006 cycles: 205017630 heartbeat IPC: 4 cumulative IPC: 4 (Simulation time: 04 hr 08 min 36 sec)
Heartbeat CPU 1 instructions: 440000069 cycles: 205970196 heartbeat IPC: 2.012 cumulative IPC: 1.912 (Simulation time: 04 hr 09 min 46 sec)
Heartbeat CPU 2 instructions: 830000001 cycles: 207516518 heartbeat IPC: 4 cumulative IPC: 4 (Simulation time: 04 hr 11 min 57 sec)
Heartbeat CPU 3 instructions: 830000006 cycles: 207517630 heartbeat IPC: 4 cumulative IPC: 4 (Simulation time: 04 hr 11 min 57 sec)
Heartbeat CPU 0 instructions: 140000018 cycles: 208075594 heartbeat IPC: 1.509 cumulative IPC: 0.6094 (Simulation time: 04 hr 12 min 43 sec)
Heartbeat CPU 2 instructions: 840000001 cycles: 210016518 heartbeat IPC: 4 cumulative IPC: 4 (Simulation time: 04 hr 15 min 23 sec)
Heartbeat CPU 3 instructions: 840000006 cycles: 210017630 heartbeat IPC: 4 cumulative IPC: 4 (Simulation time: 04 hr 15 min 23 sec)
Heartbeat CPU 1 instructions: 450000070 cycles: 211057598 heartbeat IPC: 1.966 cumulative IPC: 1.913 (Simulation time: 04 hr 16 min 42 sec)
Heartbeat CPU 2 instructions: 850000001 cycles: 212516518 heartbeat IPC: 4 cumulative IPC: 4 (Simulation time: 04 hr 18 min 32 sec)
Heartbeat CPU 3 instructions: 850000006 cycles: 212517630 heartbeat IPC: 4 cumulative IPC: 4 (Simulation time: 04 hr 18 min 32 sec)
Heartbeat CPU 2 instructions: 860000001 cycles: 215016518 heartbeat IPC: 4 cumulative IPC: 4 (Simulation time: 04 hr 21 min 28 sec)
Heartbeat CPU 3 instructions: 860000006 cycles: 215017630 heartbeat IPC: 4 cumulative IPC: 4 (Simulation time: 04 hr 21 min 28 sec)
Heartbeat CPU 1 instructions: 460000072 cycles: 215901028 heartbeat IPC: 2.065 cumulative IPC: 1.918 (Simulation time: 04 hr 22 min 29 sec)
Heartbeat CPU 2 instructions: 870000001 cycles: 217516518 heartbeat IPC: 4 cumulative IPC: 4 (Simulation time: 04 hr 24 min 20 sec)
Heartbeat CPU 3 instructions: 870000006 cycles: 217517630 heartbeat IPC: 4 cumulative IPC: 4 (Simulation time: 04 hr 24 min 20 sec)
Simulation finished CPU 0 instructions: 100000004 cycles: 159175321 cumulative IPC: 0.6282 (Simulation time: 04 hr 26 min 37 sec)
Simulation complete CPU 3 instructions: 636668748 cycles: 159175321 cumulative IPC: 4 (Simulation time: 04 hr 26 min 37 sec)
Simulation complete CPU 2 instructions: 636672740 cycles: 159175321 cumulative IPC: 4 (Simulation time: 04 hr 26 min 37 sec)
Simulation complete CPU 1 instructions: 305528852 cycles: 159175321 cumulative IPC: 1.919 (Simulation time: 04 hr 26 min 37 sec)
Simulation complete CPU 0 instructions: 100000004 cycles: 159175321 cumulative IPC: 0.6282 (Simulation time: 04 hr 26 min 37 sec)

ChampSim completed all CPUs

=== Simulation ===
CPU 0 runs /home/harshraj/COALESCE-Hashed-Perceptron-Cache-Replacement-Policy/simulator/traces/barnes_4t0.champsimtrace
CPU 1 runs /home/harshraj/COALESCE-Hashed-Perceptron-Cache-Replacement-Policy/simulator/traces/barnes_4t1.champsimtrace
CPU 2 runs /home/harshraj/COALESCE-Hashed-Perceptron-Cache-Replacement-Policy/simulator/traces/barnes_4t2.champsimtrace
CPU 3 runs /home/harshraj/COALESCE-Hashed-Perceptron-Cache-Replacement-Policy/simulator/traces/barnes_4t3.champsimtrace

Total Simulation Statistics (not including warmup)

CPU 3 cumulative IPC: 4 instructions: 636668748 cycles: 159175321
CPU 3 Branch Prediction Accuracy: -% MPKI: 0 Average ROB Occupancy at Mispredict: -
Branch type MPKI
BRANCH_DIRECT_JUMP: 0
BRANCH_INDIRECT: 0
BRANCH_CONDITIONAL: 0
BRANCH_DIRECT_CALL: 0
BRANCH_INDIRECT_CALL: 0
BRANCH_RETURN: 0


CPU 2 cumulative IPC: 4 instructions: 636672740 cycles: 159175321
CPU 2 Branch Prediction Accuracy: -% MPKI: 0 Average ROB Occupancy at Mispredict: -
Branch type MPKI
BRANCH_DIRECT_JUMP: 0
BRANCH_INDIRECT: 0
BRANCH_CONDITIONAL: 0
BRANCH_DIRECT_CALL: 0
BRANCH_INDIRECT_CALL: 0
BRANCH_RETURN: 0


CPU 1 cumulative IPC: 1.919 instructions: 305528852 cycles: 159175321
CPU 1 Branch Prediction Accuracy: -% MPKI: 0 Average ROB Occupancy at Mispredict: -
Branch type MPKI
BRANCH_DIRECT_JUMP: 0
BRANCH_INDIRECT: 0
BRANCH_CONDITIONAL: 0
BRANCH_DIRECT_CALL: 0
BRANCH_INDIRECT_CALL: 0
BRANCH_RETURN: 0


CPU 0 cumulative IPC: 0.6282 instructions: 100000004 cycles: 159175321
CPU 0 Branch Prediction Accuracy: -% MPKI: 0 Average ROB Occupancy at Mispredict: -
Branch type MPKI
BRANCH_DIRECT_JUMP: 0
BRANCH_INDIRECT: 0
BRANCH_CONDITIONAL: 0
BRANCH_DIRECT_CALL: 0
BRANCH_INDIRECT_CALL: 0
BRANCH_RETURN: 0

cpu3->cpu3_STLB TOTAL        ACCESS:         18 HIT:          8 MISS:         10 MSHR_MERGE:          0
cpu3->cpu3_STLB LOAD         ACCESS:         18 HIT:          8 MISS:         10 MSHR_MERGE:          0
cpu3->cpu3_STLB RFO          ACCESS:          0 HIT:          0 MISS:          0 MSHR_MERGE:          0
cpu3->cpu3_STLB PREFETCH     ACCESS:          0 HIT:          0 MISS:          0 MSHR_MERGE:          0
cpu3->cpu3_STLB WRITE        ACCESS:          0 HIT:          0 MISS:          0 MSHR_MERGE:          0
cpu3->cpu3_STLB TRANSLATION  ACCESS:          0 HIT:          0 MISS:          0 MSHR_MERGE:          0
cpu3->cpu3_STLB PREFETCH REQUESTED:          0 ISSUED:          0 USEFUL:          0 USELESS:          0
cpu3->cpu3_STLB AVERAGE MISS LATENCY: 737.5 cycles
cpu3_STLB COHERENCE INVALIDATIONS:          0
cpu3_STLB COHERENCE WRITE-HIT OTHER-SHARER EVENTS:          0
cpu3->cpu3_L2C TOTAL        ACCESS:         58 HIT:          4 MISS:         54 MSHR_MERGE:          0
cpu3->cpu3_L2C LOAD         ACCESS:         38 HIT:          4 MISS:         34 MSHR_MERGE:          0
cpu3->cpu3_L2C RFO          ACCESS:          0 HIT:          0 MISS:          0 MSHR_MERGE:          0
cpu3->cpu3_L2C PREFETCH     ACCESS:          0 HIT:          0 MISS:          0 MSHR_MERGE:          0
cpu3->cpu3_L2C WRITE        ACCESS:          0 HIT:          0 MISS:          0 MSHR_MERGE:          0
cpu3->cpu3_L2C TRANSLATION  ACCESS:         20 HIT:          0 MISS:         20 MSHR_MERGE:          0
cpu3->cpu3_L2C PREFETCH REQUESTED:          0 ISSUED:          0 USEFUL:          0 USELESS:          0
cpu3->cpu3_L2C AVERAGE MISS LATENCY: 206.1 cycles
cpu3_L2C COHERENCE INVALIDATIONS:          0
cpu3_L2C COHERENCE WRITE-HIT OTHER-SHARER EVENTS:          0
cpu3->cpu3_L1I TOTAL        ACCESS:   99357106 HIT:   99357052 MISS:         54 MSHR_MERGE:         16
cpu3->cpu3_L1I LOAD         ACCESS:   99357106 HIT:   99357052 MISS:         54 MSHR_MERGE:         16
cpu3->cpu3_L1I RFO          ACCESS:          0 HIT:          0 MISS:          0 MSHR_MERGE:          0
cpu3->cpu3_L1I PREFETCH     ACCESS:          0 HIT:          0 MISS:          0 MSHR_MERGE:          0
cpu3->cpu3_L1I WRITE        ACCESS:          0 HIT:          0 MISS:          0 MSHR_MERGE:          0
cpu3->cpu3_L1I TRANSLATION  ACCESS:          0 HIT:          0 MISS:          0 MSHR_MERGE:          0
cpu3->cpu3_L1I PREFETCH REQUESTED:          0 ISSUED:          0 USEFUL:          0 USELESS:          0
cpu3->cpu3_L1I AVERAGE MISS LATENCY: 187.7 cycles
cpu3_L1I COHERENCE INVALIDATIONS:          0
cpu3_L1I COHERENCE WRITE-HIT OTHER-SHARER EVENTS:          0
cpu3->cpu3_L1D TOTAL        ACCESS:         20 HIT:          0 MISS:         20 MSHR_MERGE:          0
cpu3->cpu3_L1D LOAD         ACCESS:          0 HIT:          0 MISS:          0 MSHR_MERGE:          0
cpu3->cpu3_L1D RFO          ACCESS:          0 HIT:          0 MISS:          0 MSHR_MERGE:          0
cpu3->cpu3_L1D PREFETCH     ACCESS:          0 HIT:          0 MISS:          0 MSHR_MERGE:          0
cpu3->cpu3_L1D WRITE        ACCESS:          0 HIT:          0 MISS:          0 MSHR_MERGE:          0
cpu3->cpu3_L1D TRANSLATION  ACCESS:         20 HIT:          0 MISS:         20 MSHR_MERGE:          0
cpu3->cpu3_L1D PREFETCH REQUESTED:          0 ISSUED:          0 USEFUL:          0 USELESS:          0
cpu3->cpu3_L1D AVERAGE MISS LATENCY: 222.8 cycles
cpu3_L1D COHERENCE INVALIDATIONS:          0
cpu3_L1D COHERENCE WRITE-HIT OTHER-SHARER EVENTS:          0
cpu3->cpu3_ITLB TOTAL        ACCESS:   78464018 HIT:   78463987 MISS:         31 MSHR_MERGE:         13
cpu3->cpu3_ITLB LOAD         ACCESS:   78464018 HIT:   78463987 MISS:         31 MSHR_MERGE:         13
cpu3->cpu3_ITLB RFO          ACCESS:          0 HIT:          0 MISS:          0 MSHR_MERGE:          0
cpu3->cpu3_ITLB PREFETCH     ACCESS:          0 HIT:          0 MISS:          0 MSHR_MERGE:          0
cpu3->cpu3_ITLB WRITE        ACCESS:          0 HIT:          0 MISS:          0 MSHR_MERGE:          0
cpu3->cpu3_ITLB TRANSLATION  ACCESS:          0 HIT:          0 MISS:          0 MSHR_MERGE:          0
cpu3->cpu3_ITLB PREFETCH REQUESTED:          0 ISSUED:          0 USEFUL:          0 USELESS:          0
cpu3->cpu3_ITLB AVERAGE MISS LATENCY: 414.3 cycles
cpu3_ITLB COHERENCE INVALIDATIONS:          0
cpu3_ITLB COHERENCE WRITE-HIT OTHER-SHARER EVENTS:          0
cpu3_DTLB COHERENCE INVALIDATIONS:          0
cpu3_DTLB COHERENCE WRITE-HIT OTHER-SHARER EVENTS:          0
cpu2->cpu2_STLB TOTAL        ACCESS:         17 HIT:          7 MISS:         10 MSHR_MERGE:          0
cpu2->cpu2_STLB LOAD         ACCESS:         17 HIT:          7 MISS:         10 MSHR_MERGE:          0
cpu2->cpu2_STLB RFO          ACCESS:          0 HIT:          0 MISS:          0 MSHR_MERGE:          0
cpu2->cpu2_STLB PREFETCH     ACCESS:          0 HIT:          0 MISS:          0 MSHR_MERGE:          0
cpu2->cpu2_STLB WRITE        ACCESS:          0 HIT:          0 MISS:          0 MSHR_MERGE:          0
cpu2->cpu2_STLB TRANSLATION  ACCESS:          0 HIT:          0 MISS:          0 MSHR_MERGE:          0
cpu2->cpu2_STLB PREFETCH REQUESTED:          0 ISSUED:          0 USEFUL:          0 USELESS:          0
cpu2->cpu2_STLB AVERAGE MISS LATENCY: 637.7 cycles
cpu2_STLB COHERENCE INVALIDATIONS:          0
cpu2_STLB COHERENCE WRITE-HIT OTHER-SHARER EVENTS:          0
cpu2->cpu2_L2C TOTAL        ACCESS:         58 HIT:          4 MISS:         54 MSHR_MERGE:          0
cpu2->cpu2_L2C LOAD         ACCESS:         38 HIT:          4 MISS:         34 MSHR_MERGE:          0
cpu2->cpu2_L2C RFO          ACCESS:          0 HIT:          0 MISS:          0 MSHR_MERGE:          0
cpu2->cpu2_L2C PREFETCH     ACCESS:          0 HIT:          0 MISS:          0 MSHR_MERGE:          0
cpu2->cpu2_L2C WRITE        ACCESS:          0 HIT:          0 MISS:          0 MSHR_MERGE:          0
cpu2->cpu2_L2C TRANSLATION  ACCESS:         20 HIT:          0 MISS:         20 MSHR_MERGE:          0
cpu2->cpu2_L2C PREFETCH REQUESTED:          0 ISSUED:          0 USEFUL:          0 USELESS:          0
cpu2->cpu2_L2C AVERAGE MISS LATENCY: 209.1 cycles
cpu2_L2C COHERENCE INVALIDATIONS:          0
cpu2_L2C COHERENCE WRITE-HIT OTHER-SHARER EVENTS:          0
cpu2->cpu2_L1I TOTAL        ACCESS:  102275543 HIT:  102275492 MISS:         51 MSHR_MERGE:         13
cpu2->cpu2_L1I LOAD         ACCESS:  102275543 HIT:  102275492 MISS:         51 MSHR_MERGE:         13
cpu2->cpu2_L1I RFO          ACCESS:          0 HIT:          0 MISS:          0 MSHR_MERGE:          0
cpu2->cpu2_L1I PREFETCH     ACCESS:          0 HIT:          0 MISS:          0 MSHR_MERGE:          0
cpu2->cpu2_L1I WRITE        ACCESS:          0 HIT:          0 MISS:          0 MSHR_MERGE:          0
cpu2->cpu2_L1I TRANSLATION  ACCESS:          0 HIT:          0 MISS:          0 MSHR_MERGE:          0
cpu2->cpu2_L1I PREFETCH REQUESTED:          0 ISSUED:          0 USEFUL:          0 USELESS:          0
cpu2->cpu2_L1I AVERAGE MISS LATENCY: 197.2 cycles
cpu2_L1I COHERENCE INVALIDATIONS:          0
cpu2_L1I COHERENCE WRITE-HIT OTHER-SHARER EVENTS:          0
cpu2->cpu2_L1D TOTAL        ACCESS:         20 HIT:          0 MISS:         20 MSHR_MERGE:          0
cpu2->cpu2_L1D LOAD         ACCESS:          0 HIT:          0 MISS:          0 MSHR_MERGE:          0
cpu2->cpu2_L1D RFO          ACCESS:          0 HIT:          0 MISS:          0 MSHR_MERGE:          0
cpu2->cpu2_L1D PREFETCH     ACCESS:          0 HIT:          0 MISS:          0 MSHR_MERGE:          0
cpu2->cpu2_L1D WRITE        ACCESS:          0 HIT:          0 MISS:          0 MSHR_MERGE:          0
cpu2->cpu2_L1D TRANSLATION  ACCESS:         20 HIT:          0 MISS:         20 MSHR_MERGE:          0
cpu2->cpu2_L1D PREFETCH REQUESTED:          0 ISSUED:          0 USEFUL:          0 USELESS:          0
cpu2->cpu2_L1D AVERAGE MISS LATENCY: 212.8 cycles
cpu2_L1D COHERENCE INVALIDATIONS:          0
cpu2_L1D COHERENCE WRITE-HIT OTHER-SHARER EVENTS:          0
cpu2->cpu2_ITLB TOTAL        ACCESS:   78921651 HIT:   78921623 MISS:         28 MSHR_MERGE:         11
cpu2->cpu2_ITLB LOAD         ACCESS:   78921651 HIT:   78921623 MISS:         28 MSHR_MERGE:         11
cpu2->cpu2_ITLB RFO          ACCESS:          0 HIT:          0 MISS:          0 MSHR_MERGE:          0
cpu2->cpu2_ITLB PREFETCH     ACCESS:          0 HIT:          0 MISS:          0 MSHR_MERGE:          0
cpu2->cpu2_ITLB WRITE        ACCESS:          0 HIT:          0 MISS:          0 MSHR_MERGE:          0
cpu2->cpu2_ITLB TRANSLATION  ACCESS:          0 HIT:          0 MISS:          0 MSHR_MERGE:          0
cpu2->cpu2_ITLB PREFETCH REQUESTED:          0 ISSUED:          0 USEFUL:          0 USELESS:          0
cpu2->cpu2_ITLB AVERAGE MISS LATENCY: 379.7 cycles
cpu2_ITLB COHERENCE INVALIDATIONS:          0
cpu2_ITLB COHERENCE WRITE-HIT OTHER-SHARER EVENTS:          0
cpu2_DTLB COHERENCE INVALIDATIONS:          0
cpu2_DTLB COHERENCE WRITE-HIT OTHER-SHARER EVENTS:          0
cpu1->cpu1_STLB TOTAL        ACCESS:    1141038 HIT:    1140870 MISS:        168 MSHR_MERGE:          0
cpu1->cpu1_STLB LOAD         ACCESS:    1141038 HIT:    1140870 MISS:        168 MSHR_MERGE:          0
cpu1->cpu1_STLB RFO          ACCESS:          0 HIT:          0 MISS:          0 MSHR_MERGE:          0
cpu1->cpu1_STLB PREFETCH     ACCESS:          0 HIT:          0 MISS:          0 MSHR_MERGE:          0
cpu1->cpu1_STLB WRITE        ACCESS:          0 HIT:          0 MISS:          0 MSHR_MERGE:          0
cpu1->cpu1_STLB TRANSLATION  ACCESS:          0 HIT:          0 MISS:          0 MSHR_MERGE:          0
cpu1->cpu1_STLB PREFETCH REQUESTED:          0 ISSUED:          0 USEFUL:          0 USELESS:          0
cpu1->cpu1_STLB AVERAGE MISS LATENCY: 647.1 cycles
cpu1_STLB COHERENCE INVALIDATIONS:          0
cpu1_STLB COHERENCE WRITE-HIT OTHER-SHARER EVENTS:          0
cpu1->cpu1_L2C TOTAL        ACCESS:    3406885 HIT:    3116258 MISS:     290627 MSHR_MERGE:          0
cpu1->cpu1_L2C LOAD         ACCESS:    3406688 HIT:    3116258 MISS:     290430 MSHR_MERGE:          0
cpu1->cpu1_L2C RFO          ACCESS:          0 HIT:          0 MISS:          0 MSHR_MERGE:          0
cpu1->cpu1_L2C PREFETCH     ACCESS:          0 HIT:          0 MISS:          0 MSHR_MERGE:          0
cpu1->cpu1_L2C WRITE        ACCESS:          0 HIT:          0 MISS:          0 MSHR_MERGE:          0
cpu1->cpu1_L2C TRANSLATION  ACCESS:        197 HIT:          0 MISS:        197 MSHR_MERGE:          0
cpu1->cpu1_L2C PREFETCH REQUESTED:          0 ISSUED:          0 USEFUL:          0 USELESS:          0
cpu1->cpu1_L2C AVERAGE MISS LATENCY: 108.8 cycles
cpu1_L2C COHERENCE INVALIDATIONS:          0
cpu1_L2C COHERENCE WRITE-HIT OTHER-SHARER EVENTS:          0
cpu1->cpu1_L1I TOTAL        ACCESS:   64241001 HIT:   60776306 MISS:    3464695 MSHR_MERGE:      58007
cpu1->cpu1_L1I LOAD         ACCESS:   64241001 HIT:   60776306 MISS:    3464695 MSHR_MERGE:      58007
cpu1->cpu1_L1I RFO          ACCESS:          0 HIT:          0 MISS:          0 MSHR_MERGE:          0
cpu1->cpu1_L1I PREFETCH     ACCESS:          0 HIT:          0 MISS:          0 MSHR_MERGE:          0
cpu1->cpu1_L1I WRITE        ACCESS:          0 HIT:          0 MISS:          0 MSHR_MERGE:          0
cpu1->cpu1_L1I TRANSLATION  ACCESS:          0 HIT:          0 MISS:          0 MSHR_MERGE:          0
cpu1->cpu1_L1I PREFETCH REQUESTED:          0 ISSUED:          0 USEFUL:          0 USELESS:          0
cpu1->cpu1_L1I AVERAGE MISS LATENCY: 16.54 cycles
cpu1_L1I COHERENCE INVALIDATIONS:          0
cpu1_L1I COHERENCE WRITE-HIT OTHER-SHARER EVENTS:          0
cpu1->cpu1_L1D TOTAL        ACCESS:        339 HIT:        142 MISS:        197 MSHR_MERGE:          0
cpu1->cpu1_L1D LOAD         ACCESS:          0 HIT:          0 MISS:          0 MSHR_MERGE:          0
cpu1->cpu1_L1D RFO          ACCESS:          0 HIT:          0 MISS:          0 MSHR_MERGE:          0
cpu1->cpu1_L1D PREFETCH     ACCESS:          0 HIT:          0 MISS:          0 MSHR_MERGE:          0
cpu1->cpu1_L1D WRITE        ACCESS:          0 HIT:          0 MISS:          0 MSHR_MERGE:          0
cpu1->cpu1_L1D TRANSLATION  ACCESS:        339 HIT:        142 MISS:        197 MSHR_MERGE:          0
cpu1->cpu1_L1D PREFETCH REQUESTED:          0 ISSUED:          0 USEFUL:          0 USELESS:          0
cpu1->cpu1_L1D AVERAGE MISS LATENCY: 204.2 cycles
cpu1_L1D COHERENCE INVALIDATIONS:          0
cpu1_L1D COHERENCE WRITE-HIT OTHER-SHARER EVENTS:          0
cpu1->cpu1_ITLB TOTAL        ACCESS:   61744121 HIT:   60541800 MISS:    1202321 MSHR_MERGE:      61283
cpu1->cpu1_ITLB LOAD         ACCESS:   61744121 HIT:   60541800 MISS:    1202321 MSHR_MERGE:      61283
cpu1->cpu1_ITLB RFO          ACCESS:          0 HIT:          0 MISS:          0 MSHR_MERGE:          0
cpu1->cpu1_ITLB PREFETCH     ACCESS:          0 HIT:          0 MISS:          0 MSHR_MERGE:          0
cpu1->cpu1_ITLB WRITE        ACCESS:          0 HIT:          0 MISS:          0 MSHR_MERGE:          0
cpu1->cpu1_ITLB TRANSLATION  ACCESS:          0 HIT:          0 MISS:          0 MSHR_MERGE:          0
cpu1->cpu1_ITLB PREFETCH REQUESTED:          0 ISSUED:          0 USEFUL:          0 USELESS:          0
cpu1->cpu1_ITLB AVERAGE MISS LATENCY: 4.095 cycles
cpu1_ITLB COHERENCE INVALIDATIONS:          0
cpu1_ITLB COHERENCE WRITE-HIT OTHER-SHARER EVENTS:          0
cpu1_DTLB COHERENCE INVALIDATIONS:          0
cpu1_DTLB COHERENCE WRITE-HIT OTHER-SHARER EVENTS:          0
cpu0->cpu0_STLB TOTAL        ACCESS:    3019940 HIT:    3007010 MISS:      12930 MSHR_MERGE:          0
cpu0->cpu0_STLB LOAD         ACCESS:    3019940 HIT:    3007010 MISS:      12930 MSHR_MERGE:          0
cpu0->cpu0_STLB RFO          ACCESS:          0 HIT:          0 MISS:          0 MSHR_MERGE:          0
cpu0->cpu0_STLB PREFETCH     ACCESS:          0 HIT:          0 MISS:          0 MSHR_MERGE:          0
cpu0->cpu0_STLB WRITE        ACCESS:          0 HIT:          0 MISS:          0 MSHR_MERGE:          0
cpu0->cpu0_STLB TRANSLATION  ACCESS:          0 HIT:          0 MISS:          0 MSHR_MERGE:          0
cpu0->cpu0_STLB PREFETCH REQUESTED:          0 ISSUED:          0 USEFUL:          0 USELESS:          0
cpu0->cpu0_STLB AVERAGE MISS LATENCY: 258.3 cycles
cpu0_STLB COHERENCE INVALIDATIONS:          0
cpu0_STLB COHERENCE WRITE-HIT OTHER-SHARER EVENTS:          0
cpu0->cpu0_L2C TOTAL        ACCESS:    4709747 HIT:    4298905 MISS:     410842 MSHR_MERGE:          0
cpu0->cpu0_L2C LOAD         ACCESS:    3759094 HIT:    3414077 MISS:     345017 MSHR_MERGE:          0
cpu0->cpu0_L2C RFO          ACCESS:     343376 HIT:     291539 MISS:      51837 MSHR_MERGE:          0
cpu0->cpu0_L2C PREFETCH     ACCESS:          0 HIT:          0 MISS:          0 MSHR_MERGE:          0
cpu0->cpu0_L2C WRITE        ACCESS:     579109 HIT:     578829 MISS:        280 MSHR_MERGE:          0
cpu0->cpu0_L2C TRANSLATION  ACCESS:      28168 HIT:      14460 MISS:      13708 MSHR_MERGE:          0
cpu0->cpu0_L2C PREFETCH REQUESTED:          0 ISSUED:          0 USEFUL:          0 USELESS:          0
cpu0->cpu0_L2C AVERAGE MISS LATENCY: 129 cycles
cpu0_L2C COHERENCE INVALIDATIONS:          0
cpu0_L2C COHERENCE WRITE-HIT OTHER-SHARER EVENTS:          0
cpu0->cpu0_L1I TOTAL        ACCESS:   25263438 HIT:   25263421 MISS:         17 MSHR_MERGE:          4
cpu0->cpu0_L1I LOAD         ACCESS:   25263438 HIT:   25263421 MISS:         17 MSHR_MERGE:          4
cpu0->cpu0_L1I RFO          ACCESS:          0 HIT:          0 MISS:          0 MSHR_MERGE:          0
cpu0->cpu0_L1I PREFETCH     ACCESS:          0 HIT:          0 MISS:          0 MSHR_MERGE:          0
cpu0->cpu0_L1I WRITE        ACCESS:          0 HIT:          0 MISS:          0 MSHR_MERGE:          0
cpu0->cpu0_L1I TRANSLATION  ACCESS:          0 HIT:          0 MISS:          0 MSHR_MERGE:          0
cpu0->cpu0_L1I PREFETCH REQUESTED:          0 ISSUED:          0 USEFUL:          0 USELESS:          0
cpu0->cpu0_L1I AVERAGE MISS LATENCY: 201.5 cycles
cpu0_L1I COHERENCE INVALIDATIONS:          0
cpu0_L1I COHERENCE WRITE-HIT OTHER-SHARER EVENTS:          0
cpu0->cpu0_L1D TOTAL        ACCESS:   63863100 HIT:   59652149 MISS:    4210951 MSHR_MERGE:      79861
cpu0->cpu0_L1D LOAD         ACCESS:   16890221 HIT:   13120832 MISS:    3769389 MSHR_MERGE:      10223
cpu0->cpu0_L1D RFO          ACCESS:          0 HIT:          0 MISS:          0 MSHR_MERGE:          0
cpu0->cpu0_L1D PREFETCH     ACCESS:          0 HIT:          0 MISS:          0 MSHR_MERGE:          0
cpu0->cpu0_L1D WRITE        ACCESS:   46941555 HIT:   46528168 MISS:     413387 MSHR_MERGE:      69631
cpu0->cpu0_L1D TRANSLATION  ACCESS:      31324 HIT:       3149 MISS:      28175 MSHR_MERGE:          7
cpu0->cpu0_L1D PREFETCH REQUESTED:          0 ISSUED:          0 USEFUL:          0 USELESS:          0
cpu0->cpu0_L1D AVERAGE MISS LATENCY: 20.13 cycles
cpu0_L1D COHERENCE INVALIDATIONS:          0
cpu0_L1D COHERENCE WRITE-HIT OTHER-SHARER EVENTS:          0
cpu0->cpu0_ITLB TOTAL        ACCESS:   22766910 HIT:   22766910 MISS:          0 MSHR_MERGE:          0
cpu0->cpu0_ITLB LOAD         ACCESS:   22766910 HIT:   22766910 MISS:          0 MSHR_MERGE:          0
cpu0->cpu0_ITLB RFO          ACCESS:          0 HIT:          0 MISS:          0 MSHR_MERGE:          0
cpu0->cpu0_ITLB PREFETCH     ACCESS:          0 HIT:          0 MISS:          0 MSHR_MERGE:          0
cpu0->cpu0_ITLB WRITE        ACCESS:          0 HIT:          0 MISS:          0 MSHR_MERGE:          0
cpu0->cpu0_ITLB TRANSLATION  ACCESS:          0 HIT:          0 MISS:          0 MSHR_MERGE:          0
cpu0->cpu0_ITLB PREFETCH REQUESTED:          0 ISSUED:          0 USEFUL:          0 USELESS:          0
cpu0->cpu0_ITLB AVERAGE MISS LATENCY: - cycles
cpu0_ITLB COHERENCE INVALIDATIONS:          0
cpu0_ITLB COHERENCE WRITE-HIT OTHER-SHARER EVENTS:          0
cpu0->cpu0_DTLB TOTAL        ACCESS:   62023177 HIT:   58832126 MISS:    3191051 MSHR_MERGE:     171111
cpu0->cpu0_DTLB LOAD         ACCESS:   62023177 HIT:   58832126 MISS:    3191051 MSHR_MERGE:     171111
cpu0->cpu0_DTLB RFO          ACCESS:          0 HIT:          0 MISS:          0 MSHR_MERGE:          0
cpu0->cpu0_DTLB PREFETCH     ACCESS:          0 HIT:          0 MISS:          0 MSHR_MERGE:          0
cpu0->cpu0_DTLB WRITE        ACCESS:          0 HIT:          0 MISS:          0 MSHR_MERGE:          0
cpu0->cpu0_DTLB TRANSLATION  ACCESS:          0 HIT:          0 MISS:          0 MSHR_MERGE:          0
cpu0->cpu0_DTLB PREFETCH REQUESTED:          0 ISSUED:          0 USEFUL:          0 USELESS:          0
cpu0->cpu0_DTLB AVERAGE MISS LATENCY: 5.11 cycles
cpu0_DTLB COHERENCE INVALIDATIONS:          0
cpu0_DTLB COHERENCE WRITE-HIT OTHER-SHARER EVENTS:          0
cpu0->LLC TOTAL        ACCESS:     515269 HIT:     225878 MISS:     289391 MSHR_MERGE:          0
cpu0->LLC LOAD         ACCESS:     345017 HIT:     146981 MISS:     198036 MSHR_MERGE:          0
cpu0->LLC RFO          ACCESS:      51837 HIT:      23441 MISS:      28396 MSHR_MERGE:          0
cpu0->LLC PREFETCH     ACCESS:          0 HIT:          0 MISS:          0 MSHR_MERGE:          0
cpu0->LLC WRITE        ACCESS:     104707 HIT:      54374 MISS:      50333 MSHR_MERGE:          0
cpu0->LLC TRANSLATION  ACCESS:      13708 HIT:       1082 MISS:      12626 MSHR_MERGE:          0
cpu0->LLC PREFETCH REQUESTED:          0 ISSUED:          0 USEFUL:          0 USELESS:          0
cpu0->LLC AVERAGE MISS LATENCY: 256.4 cycles
cpu1->LLC TOTAL        ACCESS:     290627 HIT:     138523 MISS:     152104 MSHR_MERGE:          0
cpu1->LLC LOAD         ACCESS:     290430 HIT:     138523 MISS:     151907 MSHR_MERGE:          0
cpu1->LLC RFO          ACCESS:          0 HIT:          0 MISS:          0 MSHR_MERGE:          0
cpu1->LLC PREFETCH     ACCESS:          0 HIT:          0 MISS:          0 MSHR_MERGE:          0
cpu1->LLC WRITE        ACCESS:          0 HIT:          0 MISS:          0 MSHR_MERGE:          0
cpu1->LLC TRANSLATION  ACCESS:        197 HIT:          0 MISS:        197 MSHR_MERGE:          0
cpu1->LLC PREFETCH REQUESTED:          0 ISSUED:          0 USEFUL:          0 USELESS:          0
cpu1->LLC AVERAGE MISS LATENCY: 487.7 cycles
cpu2->LLC TOTAL        ACCESS:         54 HIT:          0 MISS:         54 MSHR_MERGE:          0
cpu2->LLC LOAD         ACCESS:         34 HIT:          0 MISS:         34 MSHR_MERGE:          0
cpu2->LLC RFO          ACCESS:          0 HIT:          0 MISS:          0 MSHR_MERGE:          0
cpu2->LLC PREFETCH     ACCESS:          0 HIT:          0 MISS:          0 MSHR_MERGE:          0
cpu2->LLC WRITE        ACCESS:          0 HIT:          0 MISS:          0 MSHR_MERGE:          0
cpu2->LLC TRANSLATION  ACCESS:         20 HIT:          0 MISS:         20 MSHR_MERGE:          0
cpu2->LLC PREFETCH REQUESTED:          0 ISSUED:          0 USEFUL:          0 USELESS:          0
cpu2->LLC AVERAGE MISS LATENCY: 1.374e+06 cycles
cpu3->LLC TOTAL        ACCESS:         54 HIT:          0 MISS:         54 MSHR_MERGE:          0
cpu3->LLC LOAD         ACCESS:         34 HIT:          0 MISS:         34 MSHR_MERGE:          0
cpu3->LLC RFO          ACCESS:          0 HIT:          0 MISS:          0 MSHR_MERGE:          0
cpu3->LLC PREFETCH     ACCESS:          0 HIT:          0 MISS:          0 MSHR_MERGE:          0
cpu3->LLC WRITE        ACCESS:          0 HIT:          0 MISS:          0 MSHR_MERGE:          0
cpu3->LLC TRANSLATION  ACCESS:         20 HIT:          0 MISS:         20 MSHR_MERGE:          0
cpu3->LLC PREFETCH REQUESTED:          0 ISSUED:          0 USEFUL:          0 USELESS:          0
cpu3->LLC AVERAGE MISS LATENCY: 1.374e+06 cycles
LLC COHERENCE INVALIDATIONS:      31296
LLC COHERENCE WRITE-HIT OTHER-SHARER EVENTS:      31296

Region of Interest Statistics

CPU 3 cumulative IPC: 4 instructions: 100000000 cycles: 25000000
CPU 3 Branch Prediction Accuracy: -% MPKI: 0 Average ROB Occupancy at Mispredict: -
Branch type MPKI
BRANCH_DIRECT_JUMP: 0
BRANCH_INDIRECT: 0
BRANCH_CONDITIONAL: 0
BRANCH_DIRECT_CALL: 0
BRANCH_INDIRECT_CALL: 0
BRANCH_RETURN: 0


CPU 2 cumulative IPC: 4 instructions: 100000000 cycles: 25000000
CPU 2 Branch Prediction Accuracy: -% MPKI: 0 Average ROB Occupancy at Mispredict: -
Branch type MPKI
BRANCH_DIRECT_JUMP: 0
BRANCH_INDIRECT: 0
BRANCH_CONDITIONAL: 0
BRANCH_DIRECT_CALL: 0
BRANCH_INDIRECT_CALL: 0
BRANCH_RETURN: 0


CPU 1 cumulative IPC: 2.042 instructions: 100000003 cycles: 48982899
CPU 1 Branch Prediction Accuracy: -% MPKI: 0 Average ROB Occupancy at Mispredict: -
Branch type MPKI
BRANCH_DIRECT_JUMP: 0
BRANCH_INDIRECT: 0
BRANCH_CONDITIONAL: 0
BRANCH_DIRECT_CALL: 0
BRANCH_INDIRECT_CALL: 0
BRANCH_RETURN: 0


CPU 0 cumulative IPC: 0.6282 instructions: 100000004 cycles: 159175321
CPU 0 Branch Prediction Accuracy: -% MPKI: 0 Average ROB Occupancy at Mispredict: -
Branch type MPKI
BRANCH_DIRECT_JUMP: 0
BRANCH_INDIRECT: 0
BRANCH_CONDITIONAL: 0
BRANCH_DIRECT_CALL: 0
BRANCH_INDIRECT_CALL: 0
BRANCH_RETURN: 0

cpu3->cpu3_STLB TOTAL        ACCESS:         18 HIT:          8 MISS:         10 MSHR_MERGE:          0
cpu3->cpu3_STLB LOAD         ACCESS:         18 HIT:          8 MISS:         10 MSHR_MERGE:          0
cpu3->cpu3_STLB RFO          ACCESS:          0 HIT:          0 MISS:          0 MSHR_MERGE:          0
cpu3->cpu3_STLB PREFETCH     ACCESS:          0 HIT:          0 MISS:          0 MSHR_MERGE:          0
cpu3->cpu3_STLB WRITE        ACCESS:          0 HIT:          0 MISS:          0 MSHR_MERGE:          0
cpu3->cpu3_STLB TRANSLATION  ACCESS:          0 HIT:          0 MISS:          0 MSHR_MERGE:          0
cpu3->cpu3_STLB PREFETCH REQUESTED:          0 ISSUED:          0 USEFUL:          0 USELESS:          0
cpu3->cpu3_STLB AVERAGE MISS LATENCY: 737.5 cycles
cpu3_STLB COHERENCE INVALIDATIONS:          0
cpu3_STLB COHERENCE WRITE-HIT OTHER-SHARER EVENTS:          0
cpu3->cpu3_L2C TOTAL        ACCESS:         58 HIT:          4 MISS:         54 MSHR_MERGE:          0
cpu3->cpu3_L2C LOAD         ACCESS:         38 HIT:          4 MISS:         34 MSHR_MERGE:          0
cpu3->cpu3_L2C RFO          ACCESS:          0 HIT:          0 MISS:          0 MSHR_MERGE:          0
cpu3->cpu3_L2C PREFETCH     ACCESS:          0 HIT:          0 MISS:          0 MSHR_MERGE:          0
cpu3->cpu3_L2C WRITE        ACCESS:          0 HIT:          0 MISS:          0 MSHR_MERGE:          0
cpu3->cpu3_L2C TRANSLATION  ACCESS:         20 HIT:          0 MISS:         20 MSHR_MERGE:          0
cpu3->cpu3_L2C PREFETCH REQUESTED:          0 ISSUED:          0 USEFUL:          0 USELESS:          0
cpu3->cpu3_L2C AVERAGE MISS LATENCY: 206.1 cycles
cpu3_L2C COHERENCE INVALIDATIONS:          0
cpu3_L2C COHERENCE WRITE-HIT OTHER-SHARER EVENTS:          0
cpu3->cpu3_L1I TOTAL        ACCESS:   99357106 HIT:   99357052 MISS:         54 MSHR_MERGE:         16
cpu3->cpu3_L1I LOAD         ACCESS:   99357106 HIT:   99357052 MISS:         54 MSHR_MERGE:         16
cpu3->cpu3_L1I RFO          ACCESS:          0 HIT:          0 MISS:          0 MSHR_MERGE:          0
cpu3->cpu3_L1I PREFETCH     ACCESS:          0 HIT:          0 MISS:          0 MSHR_MERGE:          0
cpu3->cpu3_L1I WRITE        ACCESS:          0 HIT:          0 MISS:          0 MSHR_MERGE:          0
cpu3->cpu3_L1I TRANSLATION  ACCESS:          0 HIT:          0 MISS:          0 MSHR_MERGE:          0
cpu3->cpu3_L1I PREFETCH REQUESTED:          0 ISSUED:          0 USEFUL:          0 USELESS:          0
cpu3->cpu3_L1I AVERAGE MISS LATENCY: 187.7 cycles
cpu3_L1I COHERENCE INVALIDATIONS:          0
cpu3_L1I COHERENCE WRITE-HIT OTHER-SHARER EVENTS:          0
cpu3->cpu3_L1D TOTAL        ACCESS:         20 HIT:          0 MISS:         20 MSHR_MERGE:          0
cpu3->cpu3_L1D LOAD         ACCESS:          0 HIT:          0 MISS:          0 MSHR_MERGE:          0
cpu3->cpu3_L1D RFO          ACCESS:          0 HIT:          0 MISS:          0 MSHR_MERGE:          0
cpu3->cpu3_L1D PREFETCH     ACCESS:          0 HIT:          0 MISS:          0 MSHR_MERGE:          0
cpu3->cpu3_L1D WRITE        ACCESS:          0 HIT:          0 MISS:          0 MSHR_MERGE:          0
cpu3->cpu3_L1D TRANSLATION  ACCESS:         20 HIT:          0 MISS:         20 MSHR_MERGE:          0
cpu3->cpu3_L1D PREFETCH REQUESTED:          0 ISSUED:          0 USEFUL:          0 USELESS:          0
cpu3->cpu3_L1D AVERAGE MISS LATENCY: 222.8 cycles
cpu3_L1D COHERENCE INVALIDATIONS:          0
cpu3_L1D COHERENCE WRITE-HIT OTHER-SHARER EVENTS:          0
cpu3->cpu3_ITLB TOTAL        ACCESS:   78464018 HIT:   78463987 MISS:         31 MSHR_MERGE:         13
cpu3->cpu3_ITLB LOAD         ACCESS:   78464018 HIT:   78463987 MISS:         31 MSHR_MERGE:         13
cpu3->cpu3_ITLB RFO          ACCESS:          0 HIT:          0 MISS:          0 MSHR_MERGE:          0
cpu3->cpu3_ITLB PREFETCH     ACCESS:          0 HIT:          0 MISS:          0 MSHR_MERGE:          0
cpu3->cpu3_ITLB WRITE        ACCESS:          0 HIT:          0 MISS:          0 MSHR_MERGE:          0
cpu3->cpu3_ITLB TRANSLATION  ACCESS:          0 HIT:          0 MISS:          0 MSHR_MERGE:          0
cpu3->cpu3_ITLB PREFETCH REQUESTED:          0 ISSUED:          0 USEFUL:          0 USELESS:          0
cpu3->cpu3_ITLB AVERAGE MISS LATENCY: 414.3 cycles
cpu3_ITLB COHERENCE INVALIDATIONS:          0
cpu3_ITLB COHERENCE WRITE-HIT OTHER-SHARER EVENTS:          0
cpu3_DTLB COHERENCE INVALIDATIONS:          0
cpu3_DTLB COHERENCE WRITE-HIT OTHER-SHARER EVENTS:          0
cpu2->cpu2_STLB TOTAL        ACCESS:         17 HIT:          7 MISS:         10 MSHR_MERGE:          0
cpu2->cpu2_STLB LOAD         ACCESS:         17 HIT:          7 MISS:         10 MSHR_MERGE:          0
cpu2->cpu2_STLB RFO          ACCESS:          0 HIT:          0 MISS:          0 MSHR_MERGE:          0
cpu2->cpu2_STLB PREFETCH     ACCESS:          0 HIT:          0 MISS:          0 MSHR_MERGE:          0
cpu2->cpu2_STLB WRITE        ACCESS:          0 HIT:          0 MISS:          0 MSHR_MERGE:          0
cpu2->cpu2_STLB TRANSLATION  ACCESS:          0 HIT:          0 MISS:          0 MSHR_MERGE:          0
cpu2->cpu2_STLB PREFETCH REQUESTED:          0 ISSUED:          0 USEFUL:          0 USELESS:          0
cpu2->cpu2_STLB AVERAGE MISS LATENCY: 637.7 cycles
cpu2_STLB COHERENCE INVALIDATIONS:          0
cpu2_STLB COHERENCE WRITE-HIT OTHER-SHARER EVENTS:          0
cpu2->cpu2_L2C TOTAL        ACCESS:         58 HIT:          4 MISS:         54 MSHR_MERGE:          0
cpu2->cpu2_L2C LOAD         ACCESS:         38 HIT:          4 MISS:         34 MSHR_MERGE:          0
cpu2->cpu2_L2C RFO          ACCESS:          0 HIT:          0 MISS:          0 MSHR_MERGE:          0
cpu2->cpu2_L2C PREFETCH     ACCESS:          0 HIT:          0 MISS:          0 MSHR_MERGE:          0
cpu2->cpu2_L2C WRITE        ACCESS:          0 HIT:          0 MISS:          0 MSHR_MERGE:          0
cpu2->cpu2_L2C TRANSLATION  ACCESS:         20 HIT:          0 MISS:         20 MSHR_MERGE:          0
cpu2->cpu2_L2C PREFETCH REQUESTED:          0 ISSUED:          0 USEFUL:          0 USELESS:          0
cpu2->cpu2_L2C AVERAGE MISS LATENCY: 209.1 cycles
cpu2_L2C COHERENCE INVALIDATIONS:          0
cpu2_L2C COHERENCE WRITE-HIT OTHER-SHARER EVENTS:          0
cpu2->cpu2_L1I TOTAL        ACCESS:  102275543 HIT:  102275492 MISS:         51 MSHR_MERGE:         13
cpu2->cpu2_L1I LOAD         ACCESS:  102275543 HIT:  102275492 MISS:         51 MSHR_MERGE:         13
cpu2->cpu2_L1I RFO          ACCESS:          0 HIT:          0 MISS:          0 MSHR_MERGE:          0
cpu2->cpu2_L1I PREFETCH     ACCESS:          0 HIT:          0 MISS:          0 MSHR_MERGE:          0
cpu2->cpu2_L1I WRITE        ACCESS:          0 HIT:          0 MISS:          0 MSHR_MERGE:          0
cpu2->cpu2_L1I TRANSLATION  ACCESS:          0 HIT:          0 MISS:          0 MSHR_MERGE:          0
cpu2->cpu2_L1I PREFETCH REQUESTED:          0 ISSUED:          0 USEFUL:          0 USELESS:          0
cpu2->cpu2_L1I AVERAGE MISS LATENCY: 197.2 cycles
cpu2_L1I COHERENCE INVALIDATIONS:          0
cpu2_L1I COHERENCE WRITE-HIT OTHER-SHARER EVENTS:          0
cpu2->cpu2_L1D TOTAL        ACCESS:         20 HIT:          0 MISS:         20 MSHR_MERGE:          0
cpu2->cpu2_L1D LOAD         ACCESS:          0 HIT:          0 MISS:          0 MSHR_MERGE:          0
cpu2->cpu2_L1D RFO          ACCESS:          0 HIT:          0 MISS:          0 MSHR_MERGE:          0
cpu2->cpu2_L1D PREFETCH     ACCESS:          0 HIT:          0 MISS:          0 MSHR_MERGE:          0
cpu2->cpu2_L1D WRITE        ACCESS:          0 HIT:          0 MISS:          0 MSHR_MERGE:          0
cpu2->cpu2_L1D TRANSLATION  ACCESS:         20 HIT:          0 MISS:         20 MSHR_MERGE:          0
cpu2->cpu2_L1D PREFETCH REQUESTED:          0 ISSUED:          0 USEFUL:          0 USELESS:          0
cpu2->cpu2_L1D AVERAGE MISS LATENCY: 212.8 cycles
cpu2_L1D COHERENCE INVALIDATIONS:          0
cpu2_L1D COHERENCE WRITE-HIT OTHER-SHARER EVENTS:          0
cpu2->cpu2_ITLB TOTAL        ACCESS:   78921651 HIT:   78921623 MISS:         28 MSHR_MERGE:         11
cpu2->cpu2_ITLB LOAD         ACCESS:   78921651 HIT:   78921623 MISS:         28 MSHR_MERGE:         11
cpu2->cpu2_ITLB RFO          ACCESS:          0 HIT:          0 MISS:          0 MSHR_MERGE:          0
cpu2->cpu2_ITLB PREFETCH     ACCESS:          0 HIT:          0 MISS:          0 MSHR_MERGE:          0
cpu2->cpu2_ITLB WRITE        ACCESS:          0 HIT:          0 MISS:          0 MSHR_MERGE:          0
cpu2->cpu2_ITLB TRANSLATION  ACCESS:          0 HIT:          0 MISS:          0 MSHR_MERGE:          0
cpu2->cpu2_ITLB PREFETCH REQUESTED:          0 ISSUED:          0 USEFUL:          0 USELESS:          0
cpu2->cpu2_ITLB AVERAGE MISS LATENCY: 379.7 cycles
cpu2_ITLB COHERENCE INVALIDATIONS:          0
cpu2_ITLB COHERENCE WRITE-HIT OTHER-SHARER EVENTS:          0
cpu2_DTLB COHERENCE INVALIDATIONS:          0
cpu2_DTLB COHERENCE WRITE-HIT OTHER-SHARER EVENTS:          0
cpu1->cpu1_STLB TOTAL        ACCESS:    1141038 HIT:    1140870 MISS:        168 MSHR_MERGE:          0
cpu1->cpu1_STLB LOAD         ACCESS:    1141038 HIT:    1140870 MISS:        168 MSHR_MERGE:          0
cpu1->cpu1_STLB RFO          ACCESS:          0 HIT:          0 MISS:          0 MSHR_MERGE:          0
cpu1->cpu1_STLB PREFETCH     ACCESS:          0 HIT:          0 MISS:          0 MSHR_MERGE:          0
cpu1->cpu1_STLB WRITE        ACCESS:          0 HIT:          0 MISS:          0 MSHR_MERGE:          0
cpu1->cpu1_STLB TRANSLATION  ACCESS:          0 HIT:          0 MISS:          0 MSHR_MERGE:          0
cpu1->cpu1_STLB PREFETCH REQUESTED:          0 ISSUED:          0 USEFUL:          0 USELESS:          0
cpu1->cpu1_STLB AVERAGE MISS LATENCY: 647.1 cycles
cpu1_STLB COHERENCE INVALIDATIONS:          0
cpu1_STLB COHERENCE WRITE-HIT OTHER-SHARER EVENTS:          0
cpu1->cpu1_L2C TOTAL        ACCESS:    3406885 HIT:    3116258 MISS:     290627 MSHR_MERGE:          0
cpu1->cpu1_L2C LOAD         ACCESS:    3406688 HIT:    3116258 MISS:     290430 MSHR_MERGE:          0
cpu1->cpu1_L2C RFO          ACCESS:          0 HIT:          0 MISS:          0 MSHR_MERGE:          0
cpu1->cpu1_L2C PREFETCH     ACCESS:          0 HIT:          0 MISS:          0 MSHR_MERGE:          0
cpu1->cpu1_L2C WRITE        ACCESS:          0 HIT:          0 MISS:          0 MSHR_MERGE:          0
cpu1->cpu1_L2C TRANSLATION  ACCESS:        197 HIT:          0 MISS:        197 MSHR_MERGE:          0
cpu1->cpu1_L2C PREFETCH REQUESTED:          0 ISSUED:          0 USEFUL:          0 USELESS:          0
cpu1->cpu1_L2C AVERAGE MISS LATENCY: 108.8 cycles
cpu1_L2C COHERENCE INVALIDATIONS:          0
cpu1_L2C COHERENCE WRITE-HIT OTHER-SHARER EVENTS:          0
cpu1->cpu1_L1I TOTAL        ACCESS:   64241001 HIT:   60776306 MISS:    3464695 MSHR_MERGE:      58007
cpu1->cpu1_L1I LOAD         ACCESS:   64241001 HIT:   60776306 MISS:    3464695 MSHR_MERGE:      58007
cpu1->cpu1_L1I RFO          ACCESS:          0 HIT:          0 MISS:          0 MSHR_MERGE:          0
cpu1->cpu1_L1I PREFETCH     ACCESS:          0 HIT:          0 MISS:          0 MSHR_MERGE:          0
cpu1->cpu1_L1I WRITE        ACCESS:          0 HIT:          0 MISS:          0 MSHR_MERGE:          0
cpu1->cpu1_L1I TRANSLATION  ACCESS:          0 HIT:          0 MISS:          0 MSHR_MERGE:          0
cpu1->cpu1_L1I PREFETCH REQUESTED:          0 ISSUED:          0 USEFUL:          0 USELESS:          0
cpu1->cpu1_L1I AVERAGE MISS LATENCY: 16.54 cycles
cpu1_L1I COHERENCE INVALIDATIONS:          0
cpu1_L1I COHERENCE WRITE-HIT OTHER-SHARER EVENTS:          0
cpu1->cpu1_L1D TOTAL        ACCESS:        339 HIT:        142 MISS:        197 MSHR_MERGE:          0
cpu1->cpu1_L1D LOAD         ACCESS:          0 HIT:          0 MISS:          0 MSHR_MERGE:          0
cpu1->cpu1_L1D RFO          ACCESS:          0 HIT:          0 MISS:          0 MSHR_MERGE:          0
cpu1->cpu1_L1D PREFETCH     ACCESS:          0 HIT:          0 MISS:          0 MSHR_MERGE:          0
cpu1->cpu1_L1D WRITE        ACCESS:          0 HIT:          0 MISS:          0 MSHR_MERGE:          0
cpu1->cpu1_L1D TRANSLATION  ACCESS:        339 HIT:        142 MISS:        197 MSHR_MERGE:          0
cpu1->cpu1_L1D PREFETCH REQUESTED:          0 ISSUED:          0 USEFUL:          0 USELESS:          0
cpu1->cpu1_L1D AVERAGE MISS LATENCY: 204.2 cycles
cpu1_L1D COHERENCE INVALIDATIONS:          0
cpu1_L1D COHERENCE WRITE-HIT OTHER-SHARER EVENTS:          0
cpu1->cpu1_ITLB TOTAL        ACCESS:   61744121 HIT:   60541800 MISS:    1202321 MSHR_MERGE:      61283
cpu1->cpu1_ITLB LOAD         ACCESS:   61744121 HIT:   60541800 MISS:    1202321 MSHR_MERGE:      61283
cpu1->cpu1_ITLB RFO          ACCESS:          0 HIT:          0 MISS:          0 MSHR_MERGE:          0
cpu1->cpu1_ITLB PREFETCH     ACCESS:          0 HIT:          0 MISS:          0 MSHR_MERGE:          0
cpu1->cpu1_ITLB WRITE        ACCESS:          0 HIT:          0 MISS:          0 MSHR_MERGE:          0
cpu1->cpu1_ITLB TRANSLATION  ACCESS:          0 HIT:          0 MISS:          0 MSHR_MERGE:          0
cpu1->cpu1_ITLB PREFETCH REQUESTED:          0 ISSUED:          0 USEFUL:          0 USELESS:          0
cpu1->cpu1_ITLB AVERAGE MISS LATENCY: 4.095 cycles
cpu1_ITLB COHERENCE INVALIDATIONS:          0
cpu1_ITLB COHERENCE WRITE-HIT OTHER-SHARER EVENTS:          0
cpu1_DTLB COHERENCE INVALIDATIONS:          0
cpu1_DTLB COHERENCE WRITE-HIT OTHER-SHARER EVENTS:          0
cpu0->cpu0_STLB TOTAL        ACCESS:    3019940 HIT:    3007010 MISS:      12930 MSHR_MERGE:          0
cpu0->cpu0_STLB LOAD         ACCESS:    3019940 HIT:    3007010 MISS:      12930 MSHR_MERGE:          0
cpu0->cpu0_STLB RFO          ACCESS:          0 HIT:          0 MISS:          0 MSHR_MERGE:          0
cpu0->cpu0_STLB PREFETCH     ACCESS:          0 HIT:          0 MISS:          0 MSHR_MERGE:          0
cpu0->cpu0_STLB WRITE        ACCESS:          0 HIT:          0 MISS:          0 MSHR_MERGE:          0
cpu0->cpu0_STLB TRANSLATION  ACCESS:          0 HIT:          0 MISS:          0 MSHR_MERGE:          0
cpu0->cpu0_STLB PREFETCH REQUESTED:          0 ISSUED:          0 USEFUL:          0 USELESS:          0
cpu0->cpu0_STLB AVERAGE MISS LATENCY: 258.3 cycles
cpu0_STLB COHERENCE INVALIDATIONS:          0
cpu0_STLB COHERENCE WRITE-HIT OTHER-SHARER EVENTS:          0
cpu0->cpu0_L2C TOTAL        ACCESS:    4709747 HIT:    4298905 MISS:     410842 MSHR_MERGE:          0
cpu0->cpu0_L2C LOAD         ACCESS:    3759094 HIT:    3414077 MISS:     345017 MSHR_MERGE:          0
cpu0->cpu0_L2C RFO          ACCESS:     343376 HIT:     291539 MISS:      51837 MSHR_MERGE:          0
cpu0->cpu0_L2C PREFETCH     ACCESS:          0 HIT:          0 MISS:          0 MSHR_MERGE:          0
cpu0->cpu0_L2C WRITE        ACCESS:     579109 HIT:     578829 MISS:        280 MSHR_MERGE:          0
cpu0->cpu0_L2C TRANSLATION  ACCESS:      28168 HIT:      14460 MISS:      13708 MSHR_MERGE:          0
cpu0->cpu0_L2C PREFETCH REQUESTED:          0 ISSUED:          0 USEFUL:          0 USELESS:          0
cpu0->cpu0_L2C AVERAGE MISS LATENCY: 129 cycles
cpu0_L2C COHERENCE INVALIDATIONS:          0
cpu0_L2C COHERENCE WRITE-HIT OTHER-SHARER EVENTS:          0
cpu0->cpu0_L1I TOTAL        ACCESS:   25263438 HIT:   25263421 MISS:         17 MSHR_MERGE:          4
cpu0->cpu0_L1I LOAD         ACCESS:   25263438 HIT:   25263421 MISS:         17 MSHR_MERGE:          4
cpu0->cpu0_L1I RFO          ACCESS:          0 HIT:          0 MISS:          0 MSHR_MERGE:          0
cpu0->cpu0_L1I PREFETCH     ACCESS:          0 HIT:          0 MISS:          0 MSHR_MERGE:          0
cpu0->cpu0_L1I WRITE        ACCESS:          0 HIT:          0 MISS:          0 MSHR_MERGE:          0
cpu0->cpu0_L1I TRANSLATION  ACCESS:          0 HIT:          0 MISS:          0 MSHR_MERGE:          0
cpu0->cpu0_L1I PREFETCH REQUESTED:          0 ISSUED:          0 USEFUL:          0 USELESS:          0
cpu0->cpu0_L1I AVERAGE MISS LATENCY: 201.5 cycles
cpu0_L1I COHERENCE INVALIDATIONS:          0
cpu0_L1I COHERENCE WRITE-HIT OTHER-SHARER EVENTS:          0
cpu0->cpu0_L1D TOTAL        ACCESS:   63863100 HIT:   59652149 MISS:    4210951 MSHR_MERGE:      79861
cpu0->cpu0_L1D LOAD         ACCESS:   16890221 HIT:   13120832 MISS:    3769389 MSHR_MERGE:      10223
cpu0->cpu0_L1D RFO          ACCESS:          0 HIT:          0 MISS:          0 MSHR_MERGE:          0
cpu0->cpu0_L1D PREFETCH     ACCESS:          0 HIT:          0 MISS:          0 MSHR_MERGE:          0
cpu0->cpu0_L1D WRITE        ACCESS:   46941555 HIT:   46528168 MISS:     413387 MSHR_MERGE:      69631
cpu0->cpu0_L1D TRANSLATION  ACCESS:      31324 HIT:       3149 MISS:      28175 MSHR_MERGE:          7
cpu0->cpu0_L1D PREFETCH REQUESTED:          0 ISSUED:          0 USEFUL:          0 USELESS:          0
cpu0->cpu0_L1D AVERAGE MISS LATENCY: 20.13 cycles
cpu0_L1D COHERENCE INVALIDATIONS:          0
cpu0_L1D COHERENCE WRITE-HIT OTHER-SHARER EVENTS:          0
cpu0->cpu0_ITLB TOTAL        ACCESS:   22766910 HIT:   22766910 MISS:          0 MSHR_MERGE:          0
cpu0->cpu0_ITLB LOAD         ACCESS:   22766910 HIT:   22766910 MISS:          0 MSHR_MERGE:          0
cpu0->cpu0_ITLB RFO          ACCESS:          0 HIT:          0 MISS:          0 MSHR_MERGE:          0
cpu0->cpu0_ITLB PREFETCH     ACCESS:          0 HIT:          0 MISS:          0 MSHR_MERGE:          0
cpu0->cpu0_ITLB WRITE        ACCESS:          0 HIT:          0 MISS:          0 MSHR_MERGE:          0
cpu0->cpu0_ITLB TRANSLATION  ACCESS:          0 HIT:          0 MISS:          0 MSHR_MERGE:          0
cpu0->cpu0_ITLB PREFETCH REQUESTED:          0 ISSUED:          0 USEFUL:          0 USELESS:          0
cpu0->cpu0_ITLB AVERAGE MISS LATENCY: - cycles
cpu0_ITLB COHERENCE INVALIDATIONS:          0
cpu0_ITLB COHERENCE WRITE-HIT OTHER-SHARER EVENTS:          0
cpu0->cpu0_DTLB TOTAL        ACCESS:   62023177 HIT:   58832126 MISS:    3191051 MSHR_MERGE:     171111
cpu0->cpu0_DTLB LOAD         ACCESS:   62023177 HIT:   58832126 MISS:    3191051 MSHR_MERGE:     171111
cpu0->cpu0_DTLB RFO          ACCESS:          0 HIT:          0 MISS:          0 MSHR_MERGE:          0
cpu0->cpu0_DTLB PREFETCH     ACCESS:          0 HIT:          0 MISS:          0 MSHR_MERGE:          0
cpu0->cpu0_DTLB WRITE        ACCESS:          0 HIT:          0 MISS:          0 MSHR_MERGE:          0
cpu0->cpu0_DTLB TRANSLATION  ACCESS:          0 HIT:          0 MISS:          0 MSHR_MERGE:          0
cpu0->cpu0_DTLB PREFETCH REQUESTED:          0 ISSUED:          0 USEFUL:          0 USELESS:          0
cpu0->cpu0_DTLB AVERAGE MISS LATENCY: 5.11 cycles
cpu0_DTLB COHERENCE INVALIDATIONS:          0
cpu0_DTLB COHERENCE WRITE-HIT OTHER-SHARER EVENTS:          0
cpu0->LLC TOTAL        ACCESS:     515269 HIT:     225878 MISS:     289391 MSHR_MERGE:          0
cpu0->LLC LOAD         ACCESS:     345017 HIT:     146981 MISS:     198036 MSHR_MERGE:          0
cpu0->LLC RFO          ACCESS:      51837 HIT:      23441 MISS:      28396 MSHR_MERGE:          0
cpu0->LLC PREFETCH     ACCESS:          0 HIT:          0 MISS:          0 MSHR_MERGE:          0
cpu0->LLC WRITE        ACCESS:     104707 HIT:      54374 MISS:      50333 MSHR_MERGE:          0
cpu0->LLC TRANSLATION  ACCESS:      13708 HIT:       1082 MISS:      12626 MSHR_MERGE:          0
cpu0->LLC PREFETCH REQUESTED:          0 ISSUED:          0 USEFUL:          0 USELESS:          0
cpu0->LLC AVERAGE MISS LATENCY: 256.4 cycles
cpu1->LLC TOTAL        ACCESS:     290627 HIT:     138523 MISS:     152104 MSHR_MERGE:          0
cpu1->LLC LOAD         ACCESS:     290430 HIT:     138523 MISS:     151907 MSHR_MERGE:          0
cpu1->LLC RFO          ACCESS:          0 HIT:          0 MISS:          0 MSHR_MERGE:          0
cpu1->LLC PREFETCH     ACCESS:          0 HIT:          0 MISS:          0 MSHR_MERGE:          0
cpu1->LLC WRITE        ACCESS:          0 HIT:          0 MISS:          0 MSHR_MERGE:          0
cpu1->LLC TRANSLATION  ACCESS:        197 HIT:          0 MISS:        197 MSHR_MERGE:          0
cpu1->LLC PREFETCH REQUESTED:          0 ISSUED:          0 USEFUL:          0 USELESS:          0
cpu1->LLC AVERAGE MISS LATENCY: 487.7 cycles
cpu2->LLC TOTAL        ACCESS:         54 HIT:          0 MISS:         54 MSHR_MERGE:          0
cpu2->LLC LOAD         ACCESS:         34 HIT:          0 MISS:         34 MSHR_MERGE:          0
cpu2->LLC RFO          ACCESS:          0 HIT:          0 MISS:          0 MSHR_MERGE:          0
cpu2->LLC PREFETCH     ACCESS:          0 HIT:          0 MISS:          0 MSHR_MERGE:          0
cpu2->LLC WRITE        ACCESS:          0 HIT:          0 MISS:          0 MSHR_MERGE:          0
cpu2->LLC TRANSLATION  ACCESS:         20 HIT:          0 MISS:         20 MSHR_MERGE:          0
cpu2->LLC PREFETCH REQUESTED:          0 ISSUED:          0 USEFUL:          0 USELESS:          0
cpu2->LLC AVERAGE MISS LATENCY: 1.374e+06 cycles
cpu3->LLC TOTAL        ACCESS:         54 HIT:          0 MISS:         54 MSHR_MERGE:          0
cpu3->LLC LOAD         ACCESS:         34 HIT:          0 MISS:         34 MSHR_MERGE:          0
cpu3->LLC RFO          ACCESS:          0 HIT:          0 MISS:          0 MSHR_MERGE:          0
cpu3->LLC PREFETCH     ACCESS:          0 HIT:          0 MISS:          0 MSHR_MERGE:          0
cpu3->LLC WRITE        ACCESS:          0 HIT:          0 MISS:          0 MSHR_MERGE:          0
cpu3->LLC TRANSLATION  ACCESS:         20 HIT:          0 MISS:         20 MSHR_MERGE:          0
cpu3->LLC PREFETCH REQUESTED:          0 ISSUED:          0 USEFUL:          0 USELESS:          0
cpu3->LLC AVERAGE MISS LATENCY: 1.374e+06 cycles
LLC COHERENCE INVALIDATIONS:      31296
LLC COHERENCE WRITE-HIT OTHER-SHARER EVENTS:      31296

DRAM Statistics

Channel 0 RQ ROW_BUFFER_HIT:       1761
  ROW_BUFFER_MISS:     389453
  AVG DBUS CONGESTED CYCLE: 13.36
Channel 0 WQ ROW_BUFFER_HIT:      10139
  ROW_BUFFER_MISS:      44465
  FULL:          0
Channel 0 REFRESHES ISSUED:      13265

VMEM ALIASED FILLS (cross-CPU shared-page hits): 3508
