[VMEM] WARNING: physical memory size is smaller than virtual memory size.

*** ChampSim Multicore Out-of-Order Simulator ***
Warmup Instructions: 50000000
Simulation Instructions: 100000000
Number of CPUs: 4
Page size: 4096

Off-chip DRAM Size: 16 GiB Channels: 1 Width: 64-bit Data Rate: 3205 MT/s
Heartbeat CPU 2 instructions: 10000001 cycles: 2509382 heartbeat IPC: 3.985 cumulative IPC: 3.985 (Simulation time: 00 hr 04 min 08 sec)
Heartbeat CPU 3 instructions: 10000002 cycles: 2509495 heartbeat IPC: 3.985 cumulative IPC: 3.985 (Simulation time: 00 hr 04 min 08 sec)
Heartbeat CPU 0 instructions: 10000001 cycles: 3014772 heartbeat IPC: 3.317 cumulative IPC: 3.317 (Simulation time: 00 hr 04 min 53 sec)
Heartbeat CPU 1 instructions: 10000002 cycles: 4159335 heartbeat IPC: 2.404 cumulative IPC: 2.404 (Simulation time: 00 hr 06 min 32 sec)
Heartbeat CPU 2 instructions: 20000001 cycles: 5009382 heartbeat IPC: 4 cumulative IPC: 3.993 (Simulation time: 00 hr 07 min 50 sec)
Heartbeat CPU 3 instructions: 20000002 cycles: 5009495 heartbeat IPC: 4 cumulative IPC: 3.992 (Simulation time: 00 hr 07 min 50 sec)
Heartbeat CPU 2 instructions: 30000001 cycles: 7509382 heartbeat IPC: 4 cumulative IPC: 3.995 (Simulation time: 00 hr 11 min 25 sec)
Heartbeat CPU 3 instructions: 30000002 cycles: 7509495 heartbeat IPC: 4 cumulative IPC: 3.995 (Simulation time: 00 hr 11 min 25 sec)
Heartbeat CPU 1 instructions: 20000004 cycles: 7836774 heartbeat IPC: 2.719 cumulative IPC: 2.552 (Simulation time: 00 hr 11 min 53 sec)
Heartbeat CPU 2 instructions: 40000001 cycles: 10009382 heartbeat IPC: 4 cumulative IPC: 3.996 (Simulation time: 00 hr 15 min 05 sec)
Heartbeat CPU 3 instructions: 40000002 cycles: 10009495 heartbeat IPC: 4 cumulative IPC: 3.996 (Simulation time: 00 hr 15 min 05 sec)
Heartbeat CPU 1 instructions: 30000005 cycles: 11536577 heartbeat IPC: 2.703 cumulative IPC: 2.6 (Simulation time: 00 hr 17 min 10 sec)
Heartbeat CPU 2 instructions: 50000001 cycles: 12509382 heartbeat IPC: 4 cumulative IPC: 3.997 (Simulation time: 00 hr 18 min 28 sec)
Warmup finished CPU 2 instructions: 50000001 cycles: 12509382 cumulative IPC: 3.997 (Simulation time: 00 hr 18 min 28 sec)
Heartbeat CPU 3 instructions: 50000002 cycles: 12509495 heartbeat IPC: 4 cumulative IPC: 3.997 (Simulation time: 00 hr 18 min 28 sec)
Warmup finished CPU 3 instructions: 50000002 cycles: 12509495 cumulative IPC: 3.997 (Simulation time: 00 hr 18 min 28 sec)
Heartbeat CPU 0 instructions: 20000005 cycles: 14013520 heartbeat IPC: 0.9092 cumulative IPC: 1.427 (Simulation time: 00 hr 20 min 34 sec)
Heartbeat CPU 2 instructions: 60000001 cycles: 15009382 heartbeat IPC: 4 cumulative IPC: 3.997 (Simulation time: 00 hr 21 min 59 sec)
Heartbeat CPU 3 instructions: 60000002 cycles: 15009495 heartbeat IPC: 4 cumulative IPC: 3.997 (Simulation time: 00 hr 21 min 59 sec)
Heartbeat CPU 1 instructions: 40000006 cycles: 15233874 heartbeat IPC: 2.705 cumulative IPC: 2.626 (Simulation time: 00 hr 22 min 18 sec)
Heartbeat CPU 2 instructions: 70000001 cycles: 17509382 heartbeat IPC: 4 cumulative IPC: 3.998 (Simulation time: 00 hr 25 min 27 sec)
Heartbeat CPU 3 instructions: 70000002 cycles: 17509495 heartbeat IPC: 4 cumulative IPC: 3.998 (Simulation time: 00 hr 25 min 27 sec)
Warmup finished CPU 1 instructions: 50000003 cycles: 18952787 cumulative IPC: 2.638 (Simulation time: 00 hr 27 min 27 sec)
Heartbeat CPU 1 instructions: 50000007 cycles: 18952788 heartbeat IPC: 2.689 cumulative IPC: 2.638 (Simulation time: 00 hr 27 min 27 sec)
Heartbeat CPU 2 instructions: 80000001 cycles: 20009382 heartbeat IPC: 4 cumulative IPC: 3.998 (Simulation time: 00 hr 28 min 55 sec)
Heartbeat CPU 3 instructions: 80000002 cycles: 20009495 heartbeat IPC: 4 cumulative IPC: 3.998 (Simulation time: 00 hr 28 min 55 sec)
Heartbeat CPU 2 instructions: 90000001 cycles: 22509382 heartbeat IPC: 4 cumulative IPC: 3.998 (Simulation time: 00 hr 32 min 21 sec)
Heartbeat CPU 3 instructions: 90000002 cycles: 22509495 heartbeat IPC: 4 cumulative IPC: 3.998 (Simulation time: 00 hr 32 min 21 sec)
Heartbeat CPU 1 instructions: 60000010 cycles: 22576037 heartbeat IPC: 2.76 cumulative IPC: 2.658 (Simulation time: 00 hr 32 min 26 sec)
Heartbeat CPU 2 instructions: 100000001 cycles: 25009382 heartbeat IPC: 4 cumulative IPC: 3.998 (Simulation time: 00 hr 35 min 16 sec)
Heartbeat CPU 3 instructions: 100000002 cycles: 25009495 heartbeat IPC: 4 cumulative IPC: 3.998 (Simulation time: 00 hr 35 min 16 sec)
Heartbeat CPU 1 instructions: 70000012 cycles: 26272009 heartbeat IPC: 2.706 cumulative IPC: 2.664 (Simulation time: 00 hr 37 min 01 sec)
Heartbeat CPU 2 instructions: 110000001 cycles: 27509382 heartbeat IPC: 4 cumulative IPC: 3.999 (Simulation time: 00 hr 38 min 28 sec)
Heartbeat CPU 3 instructions: 110000002 cycles: 27509495 heartbeat IPC: 4 cumulative IPC: 3.999 (Simulation time: 00 hr 38 min 28 sec)
Heartbeat CPU 0 instructions: 30000005 cycles: 29194371 heartbeat IPC: 0.6587 cumulative IPC: 1.028 (Simulation time: 00 hr 40 min 27 sec)
Heartbeat CPU 1 instructions: 80000012 cycles: 29961198 heartbeat IPC: 2.711 cumulative IPC: 2.67 (Simulation time: 00 hr 41 min 22 sec)
Heartbeat CPU 2 instructions: 120000001 cycles: 30009382 heartbeat IPC: 4 cumulative IPC: 3.999 (Simulation time: 00 hr 41 min 26 sec)
Heartbeat CPU 3 instructions: 120000002 cycles: 30009495 heartbeat IPC: 4 cumulative IPC: 3.999 (Simulation time: 00 hr 41 min 26 sec)
Heartbeat CPU 2 instructions: 130000001 cycles: 32509382 heartbeat IPC: 4 cumulative IPC: 3.999 (Simulation time: 00 hr 44 min 56 sec)
Heartbeat CPU 3 instructions: 130000002 cycles: 32509495 heartbeat IPC: 4 cumulative IPC: 3.999 (Simulation time: 00 hr 44 min 56 sec)
Heartbeat CPU 1 instructions: 90000015 cycles: 33624867 heartbeat IPC: 2.73 cumulative IPC: 2.677 (Simulation time: 00 hr 46 min 24 sec)
Heartbeat CPU 2 instructions: 140000001 cycles: 35009382 heartbeat IPC: 4 cumulative IPC: 3.999 (Simulation time: 00 hr 48 min 15 sec)
Heartbeat CPU 3 instructions: 140000002 cycles: 35009495 heartbeat IPC: 4 cumulative IPC: 3.999 (Simulation time: 00 hr 48 min 15 sec)
Heartbeat CPU 1 instructions: 100000016 cycles: 37300388 heartbeat IPC: 2.721 cumulative IPC: 2.681 (Simulation time: 00 hr 51 min 05 sec)
Heartbeat CPU 2 instructions: 150000001 cycles: 37509382 heartbeat IPC: 4 cumulative IPC: 3.999 (Simulation time: 00 hr 51 min 20 sec)
Heartbeat CPU 3 instructions: 150000002 cycles: 37509495 heartbeat IPC: 4 cumulative IPC: 3.999 (Simulation time: 00 hr 51 min 20 sec)
Heartbeat CPU 2 instructions: 160000001 cycles: 40009382 heartbeat IPC: 4 cumulative IPC: 3.999 (Simulation time: 00 hr 54 min 19 sec)
Heartbeat CPU 3 instructions: 160000002 cycles: 40009495 heartbeat IPC: 4 cumulative IPC: 3.999 (Simulation time: 00 hr 54 min 19 sec)
Heartbeat CPU 1 instructions: 110000016 cycles: 40972874 heartbeat IPC: 2.723 cumulative IPC: 2.685 (Simulation time: 00 hr 55 min 26 sec)
Heartbeat CPU 2 instructions: 170000001 cycles: 42509382 heartbeat IPC: 4 cumulative IPC: 3.999 (Simulation time: 00 hr 57 min 22 sec)
Heartbeat CPU 3 instructions: 170000002 cycles: 42509495 heartbeat IPC: 4 cumulative IPC: 3.999 (Simulation time: 00 hr 57 min 22 sec)
Heartbeat CPU 0 instructions: 40000005 cycles: 44682202 heartbeat IPC: 0.6457 cumulative IPC: 0.8952 (Simulation time: 01 hr 00 min 08 sec)
Heartbeat CPU 1 instructions: 120000018 cycles: 44703107 heartbeat IPC: 2.681 cumulative IPC: 2.684 (Simulation time: 01 hr 00 min 09 sec)
Heartbeat CPU 2 instructions: 180000001 cycles: 45009382 heartbeat IPC: 4 cumulative IPC: 3.999 (Simulation time: 01 hr 00 min 30 sec)
Heartbeat CPU 3 instructions: 180000002 cycles: 45009495 heartbeat IPC: 4 cumulative IPC: 3.999 (Simulation time: 01 hr 00 min 30 sec)
Heartbeat CPU 2 instructions: 190000001 cycles: 47509382 heartbeat IPC: 4 cumulative IPC: 3.999 (Simulation time: 01 hr 03 min 34 sec)
Heartbeat CPU 3 instructions: 190000002 cycles: 47509495 heartbeat IPC: 4 cumulative IPC: 3.999 (Simulation time: 01 hr 03 min 34 sec)
Heartbeat CPU 1 instructions: 130000020 cycles: 48396508 heartbeat IPC: 2.708 cumulative IPC: 2.686 (Simulation time: 01 hr 04 min 40 sec)
Heartbeat CPU 2 instructions: 200000001 cycles: 50009382 heartbeat IPC: 4 cumulative IPC: 3.999 (Simulation time: 01 hr 06 min 53 sec)
Heartbeat CPU 3 instructions: 200000002 cycles: 50009495 heartbeat IPC: 4 cumulative IPC: 3.999 (Simulation time: 01 hr 06 min 53 sec)
Heartbeat CPU 1 instructions: 140000023 cycles: 51968856 heartbeat IPC: 2.799 cumulative IPC: 2.694 (Simulation time: 01 hr 09 min 20 sec)
Heartbeat CPU 2 instructions: 210000001 cycles: 52509382 heartbeat IPC: 4 cumulative IPC: 3.999 (Simulation time: 01 hr 09 min 59 sec)
Heartbeat CPU 3 instructions: 210000002 cycles: 52509495 heartbeat IPC: 4 cumulative IPC: 3.999 (Simulation time: 01 hr 09 min 59 sec)
Heartbeat CPU 2 instructions: 220000001 cycles: 55009382 heartbeat IPC: 4 cumulative IPC: 3.999 (Simulation time: 01 hr 14 min 09 sec)
Heartbeat CPU 3 instructions: 220000002 cycles: 55009495 heartbeat IPC: 4 cumulative IPC: 3.999 (Simulation time: 01 hr 14 min 09 sec)
Heartbeat CPU 1 instructions: 150000023 cycles: 55927827 heartbeat IPC: 2.526 cumulative IPC: 2.682 (Simulation time: 01 hr 15 min 29 sec)
Heartbeat CPU 2 instructions: 230000001 cycles: 57509382 heartbeat IPC: 4 cumulative IPC: 3.999 (Simulation time: 01 hr 17 min 27 sec)
Heartbeat CPU 3 instructions: 230000002 cycles: 57509495 heartbeat IPC: 4 cumulative IPC: 3.999 (Simulation time: 01 hr 17 min 27 sec)
Heartbeat CPU 1 instructions: 160000023 cycles: 59763941 heartbeat IPC: 2.607 cumulative IPC: 2.677 (Simulation time: 01 hr 20 min 59 sec)
Heartbeat CPU 2 instructions: 240000001 cycles: 60009382 heartbeat IPC: 4 cumulative IPC: 3.999 (Simulation time: 01 hr 21 min 18 sec)
Heartbeat CPU 3 instructions: 240000002 cycles: 60009495 heartbeat IPC: 4 cumulative IPC: 3.999 (Simulation time: 01 hr 21 min 18 sec)
Warmup finished CPU 0 instructions: 50000000 cycles: 60378801 cumulative IPC: 0.8281 (Simulation time: 01 hr 21 min 48 sec)
Warmup complete CPU 3 instructions: 241477226 cycles: 60378801 cumulative IPC: 3.999 (Simulation time: 01 hr 21 min 48 sec)
Warmup complete CPU 2 instructions: 241477677 cycles: 60378801 cumulative IPC: 3.999 (Simulation time: 01 hr 21 min 48 sec)
Warmup complete CPU 1 instructions: 161680236 cycles: 60378801 cumulative IPC: 2.678 (Simulation time: 01 hr 21 min 48 sec)
Warmup complete CPU 0 instructions: 50000000 cycles: 60378801 cumulative IPC: 0.8281 (Simulation time: 01 hr 21 min 48 sec)
Heartbeat CPU 0 instructions: 50000005 cycles: 60378812 heartbeat IPC: 0.6371 cumulative IPC: 0.4545 (Simulation time: 01 hr 21 min 48 sec)
Heartbeat CPU 2 instructions: 250000001 cycles: 62509382 heartbeat IPC: 4 cumulative IPC: 4 (Simulation time: 01 hr 24 min 41 sec)
Heartbeat CPU 3 instructions: 250000002 cycles: 62509495 heartbeat IPC: 4 cumulative IPC: 4 (Simulation time: 01 hr 24 min 41 sec)
Heartbeat CPU 1 instructions: 170000026 cycles: 64575981 heartbeat IPC: 2.078 cumulative IPC: 1.982 (Simulation time: 01 hr 27 min 29 sec)
Heartbeat CPU 2 instructions: 260000001 cycles: 65009382 heartbeat IPC: 4 cumulative IPC: 4 (Simulation time: 01 hr 28 min 05 sec)
Heartbeat CPU 3 instructions: 260000002 cycles: 65009495 heartbeat IPC: 4 cumulative IPC: 4 (Simulation time: 01 hr 28 min 05 sec)
Heartbeat CPU 2 instructions: 270000001 cycles: 67509382 heartbeat IPC: 4 cumulative IPC: 4 (Simulation time: 01 hr 31 min 30 sec)
Heartbeat CPU 3 instructions: 270000002 cycles: 67509495 heartbeat IPC: 4 cumulative IPC: 4 (Simulation time: 01 hr 31 min 30 sec)
Heartbeat CPU 1 instructions: 180000028 cycles: 69512530 heartbeat IPC: 2.026 cumulative IPC: 2.006 (Simulation time: 01 hr 33 min 53 sec)
Heartbeat CPU 2 instructions: 280000001 cycles: 70009382 heartbeat IPC: 4 cumulative IPC: 4 (Simulation time: 01 hr 34 min 26 sec)
Heartbeat CPU 3 instructions: 280000002 cycles: 70009495 heartbeat IPC: 4 cumulative IPC: 4 (Simulation time: 01 hr 34 min 26 sec)
Heartbeat CPU 2 instructions: 290000001 cycles: 72509382 heartbeat IPC: 4 cumulative IPC: 4 (Simulation time: 01 hr 37 min 28 sec)
Heartbeat CPU 3 instructions: 290000002 cycles: 72509495 heartbeat IPC: 4 cumulative IPC: 4 (Simulation time: 01 hr 37 min 28 sec)
Heartbeat CPU 1 instructions: 190000028 cycles: 74311043 heartbeat IPC: 2.084 cumulative IPC: 2.033 (Simulation time: 01 hr 39 min 42 sec)
Heartbeat CPU 2 instructions: 300000001 cycles: 75009382 heartbeat IPC: 4 cumulative IPC: 4 (Simulation time: 01 hr 40 min 37 sec)
Heartbeat CPU 3 instructions: 300000002 cycles: 75009495 heartbeat IPC: 4 cumulative IPC: 4 (Simulation time: 01 hr 40 min 37 sec)
Heartbeat CPU 2 instructions: 310000001 cycles: 77509382 heartbeat IPC: 4 cumulative IPC: 4 (Simulation time: 01 hr 43 min 51 sec)
Heartbeat CPU 3 instructions: 310000002 cycles: 77509495 heartbeat IPC: 4 cumulative IPC: 4 (Simulation time: 01 hr 43 min 51 sec)
Heartbeat CPU 1 instructions: 200000028 cycles: 78982599 heartbeat IPC: 2.141 cumulative IPC: 2.06 (Simulation time: 01 hr 45 min 45 sec)
Heartbeat CPU 0 instructions: 60000009 cycles: 79949330 heartbeat IPC: 0.511 cumulative IPC: 0.511 (Simulation time: 01 hr 46 min 57 sec)
Heartbeat CPU 2 instructions: 320000001 cycles: 80009382 heartbeat IPC: 4 cumulative IPC: 4 (Simulation time: 01 hr 47 min 01 sec)
Heartbeat CPU 3 instructions: 320000002 cycles: 80009495 heartbeat IPC: 4 cumulative IPC: 4 (Simulation time: 01 hr 47 min 01 sec)
Heartbeat CPU 2 instructions: 330000001 cycles: 82509382 heartbeat IPC: 4 cumulative IPC: 4 (Simulation time: 01 hr 50 min 12 sec)
Heartbeat CPU 3 instructions: 330000002 cycles: 82509495 heartbeat IPC: 4 cumulative IPC: 4 (Simulation time: 01 hr 50 min 12 sec)
Heartbeat CPU 1 instructions: 210000031 cycles: 83790531 heartbeat IPC: 2.08 cumulative IPC: 2.064 (Simulation time: 01 hr 51 min 53 sec)
Heartbeat CPU 2 instructions: 340000001 cycles: 85009382 heartbeat IPC: 4 cumulative IPC: 4 (Simulation time: 01 hr 53 min 29 sec)
Heartbeat CPU 3 instructions: 340000002 cycles: 85009495 heartbeat IPC: 4 cumulative IPC: 4 (Simulation time: 01 hr 53 min 29 sec)
Simulation finished CPU 3 instructions: 100000000 cycles: 25000000 cumulative IPC: 4 (Simulation time: 01 hr 53 min 59 sec)
Simulation finished CPU 2 instructions: 100000000 cycles: 25000000 cumulative IPC: 4 (Simulation time: 01 hr 53 min 59 sec)
Heartbeat CPU 2 instructions: 350000001 cycles: 87509382 heartbeat IPC: 4 cumulative IPC: 4 (Simulation time: 01 hr 56 min 46 sec)
Heartbeat CPU 3 instructions: 350000002 cycles: 87509495 heartbeat IPC: 4 cumulative IPC: 4 (Simulation time: 01 hr 56 min 46 sec)
Heartbeat CPU 1 instructions: 220000031 cycles: 88699917 heartbeat IPC: 2.037 cumulative IPC: 2.059 (Simulation time: 01 hr 58 min 20 sec)
Heartbeat CPU 2 instructions: 360000001 cycles: 90009382 heartbeat IPC: 4 cumulative IPC: 4 (Simulation time: 02 hr 00 min 04 sec)
Heartbeat CPU 3 instructions: 360000002 cycles: 90009495 heartbeat IPC: 4 cumulative IPC: 4 (Simulation time: 02 hr 00 min 04 sec)
Heartbeat CPU 2 instructions: 370000001 cycles: 92509382 heartbeat IPC: 4 cumulative IPC: 4 (Simulation time: 02 hr 03 min 21 sec)
Heartbeat CPU 3 instructions: 370000002 cycles: 92509495 heartbeat IPC: 4 cumulative IPC: 4 (Simulation time: 02 hr 03 min 21 sec)
Heartbeat CPU 1 instructions: 230000034 cycles: 93542817 heartbeat IPC: 2.065 cumulative IPC: 2.06 (Simulation time: 02 hr 04 min 44 sec)
Heartbeat CPU 2 instructions: 380000001 cycles: 95009382 heartbeat IPC: 4 cumulative IPC: 4 (Simulation time: 02 hr 06 min 40 sec)
Heartbeat CPU 3 instructions: 380000002 cycles: 95009495 heartbeat IPC: 4 cumulative IPC: 4 (Simulation time: 02 hr 06 min 40 sec)
Heartbeat CPU 2 instructions: 390000001 cycles: 97509382 heartbeat IPC: 4 cumulative IPC: 4 (Simulation time: 02 hr 09 min 45 sec)
Heartbeat CPU 3 instructions: 390000002 cycles: 97509495 heartbeat IPC: 4 cumulative IPC: 4 (Simulation time: 02 hr 09 min 45 sec)
Heartbeat CPU 1 instructions: 240000035 cycles: 98428866 heartbeat IPC: 2.047 cumulative IPC: 2.058 (Simulation time: 02 hr 10 min 44 sec)
Heartbeat CPU 0 instructions: 70000009 cycles: 99182402 heartbeat IPC: 0.5199 cumulative IPC: 0.5154 (Simulation time: 02 hr 11 min 32 sec)
Heartbeat CPU 2 instructions: 400000001 cycles: 100009382 heartbeat IPC: 4 cumulative IPC: 4 (Simulation time: 02 hr 12 min 25 sec)
Heartbeat CPU 3 instructions: 400000002 cycles: 100009495 heartbeat IPC: 4 cumulative IPC: 4 (Simulation time: 02 hr 12 min 25 sec)
Heartbeat CPU 2 instructions: 410000001 cycles: 102509382 heartbeat IPC: 4 cumulative IPC: 4 (Simulation time: 02 hr 15 min 08 sec)
Heartbeat CPU 3 instructions: 410000004 cycles: 102509564 heartbeat IPC: 4 cumulative IPC: 4 (Simulation time: 02 hr 15 min 08 sec)
Heartbeat CPU 1 instructions: 250000035 cycles: 103420895 heartbeat IPC: 2.003 cumulative IPC: 2.052 (Simulation time: 02 hr 16 min 07 sec)
Heartbeat CPU 2 instructions: 420000001 cycles: 105009444 heartbeat IPC: 4 cumulative IPC: 4 (Simulation time: 02 hr 17 min 50 sec)
Heartbeat CPU 3 instructions: 420000004 cycles: 105009564 heartbeat IPC: 4 cumulative IPC: 4 (Simulation time: 02 hr 17 min 50 sec)
Heartbeat CPU 2 instructions: 430000001 cycles: 107509444 heartbeat IPC: 4 cumulative IPC: 4 (Simulation time: 02 hr 20 min 30 sec)
Heartbeat CPU 3 instructions: 430000004 cycles: 107509564 heartbeat IPC: 4 cumulative IPC: 4 (Simulation time: 02 hr 20 min 30 sec)
Heartbeat CPU 1 instructions: 260000038 cycles: 108489498 heartbeat IPC: 1.973 cumulative IPC: 2.044 (Simulation time: 02 hr 21 min 32 sec)
Simulation finished CPU 1 instructions: 100000002 cycles: 48975308 cumulative IPC: 2.042 (Simulation time: 02 hr 22 min 27 sec)
Heartbeat CPU 2 instructions: 440000001 cycles: 110009444 heartbeat IPC: 4 cumulative IPC: 4 (Simulation time: 02 hr 23 min 09 sec)
Heartbeat CPU 3 instructions: 440000004 cycles: 110009564 heartbeat IPC: 4 cumulative IPC: 4 (Simulation time: 02 hr 23 min 09 sec)
Heartbeat CPU 2 instructions: 450000001 cycles: 112509444 heartbeat IPC: 4 cumulative IPC: 4 (Simulation time: 02 hr 25 min 48 sec)
Heartbeat CPU 3 instructions: 450000004 cycles: 112509564 heartbeat IPC: 4 cumulative IPC: 4 (Simulation time: 02 hr 25 min 48 sec)
Heartbeat CPU 1 instructions: 270000040 cycles: 113463455 heartbeat IPC: 2.01 cumulative IPC: 2.041 (Simulation time: 02 hr 26 min 49 sec)
Heartbeat CPU 2 instructions: 460000001 cycles: 115009444 heartbeat IPC: 4 cumulative IPC: 4 (Simulation time: 02 hr 28 min 27 sec)
Heartbeat CPU 3 instructions: 460000004 cycles: 115009564 heartbeat IPC: 4 cumulative IPC: 4 (Simulation time: 02 hr 28 min 27 sec)
Heartbeat CPU 2 instructions: 470000001 cycles: 117509444 heartbeat IPC: 4 cumulative IPC: 4 (Simulation time: 02 hr 31 min 03 sec)
Heartbeat CPU 3 instructions: 470000004 cycles: 117509564 heartbeat IPC: 4 cumulative IPC: 4 (Simulation time: 02 hr 31 min 03 sec)
Heartbeat CPU 0 instructions: 80000009 cycles: 117849508 heartbeat IPC: 0.5357 cumulative IPC: 0.522 (Simulation time: 02 hr 31 min 24 sec)
Heartbeat CPU 1 instructions: 280000042 cycles: 119488940 heartbeat IPC: 1.66 cumulative IPC: 2.002 (Simulation time: 02 hr 33 min 06 sec)
Heartbeat CPU 2 instructions: 480000001 cycles: 120009444 heartbeat IPC: 4 cumulative IPC: 4 (Simulation time: 02 hr 33 min 39 sec)
Heartbeat CPU 3 instructions: 480000004 cycles: 120009564 heartbeat IPC: 4 cumulative IPC: 4 (Simulation time: 02 hr 33 min 39 sec)
Heartbeat CPU 2 instructions: 490000001 cycles: 122509444 heartbeat IPC: 4 cumulative IPC: 4 (Simulation time: 02 hr 36 min 12 sec)
Heartbeat CPU 3 instructions: 490000004 cycles: 122509564 heartbeat IPC: 4 cumulative IPC: 4 (Simulation time: 02 hr 36 min 12 sec)
Heartbeat CPU 2 instructions: 500000001 cycles: 125009444 heartbeat IPC: 4 cumulative IPC: 4 (Simulation time: 02 hr 38 min 51 sec)
Heartbeat CPU 3 instructions: 500000004 cycles: 125009564 heartbeat IPC: 4 cumulative IPC: 4 (Simulation time: 02 hr 38 min 51 sec)
Heartbeat CPU 1 instructions: 290000042 cycles: 126197764 heartbeat IPC: 1.491 cumulative IPC: 1.95 (Simulation time: 02 hr 40 min 07 sec)
Heartbeat CPU 2 instructions: 510000001 cycles: 127509444 heartbeat IPC: 4 cumulative IPC: 4 (Simulation time: 02 hr 41 min 30 sec)
Heartbeat CPU 3 instructions: 510000004 cycles: 127509564 heartbeat IPC: 4 cumulative IPC: 4 (Simulation time: 02 hr 41 min 30 sec)
Heartbeat CPU 2 instructions: 520000001 cycles: 130009444 heartbeat IPC: 4 cumulative IPC: 4 (Simulation time: 02 hr 44 min 11 sec)
Heartbeat CPU 3 instructions: 520000004 cycles: 130009564 heartbeat IPC: 4 cumulative IPC: 4 (Simulation time: 02 hr 44 min 11 sec)
Heartbeat CPU 1 instructions: 300000043 cycles: 131267142 heartbeat IPC: 1.973 cumulative IPC: 1.951 (Simulation time: 02 hr 45 min 32 sec)
Heartbeat CPU 2 instructions: 530000001 cycles: 132509444 heartbeat IPC: 4 cumulative IPC: 4 (Simulation time: 02 hr 46 min 52 sec)
Heartbeat CPU 3 instructions: 530000004 cycles: 132509564 heartbeat IPC: 4 cumulative IPC: 4 (Simulation time: 02 hr 46 min 52 sec)
*** Reached end of trace: (3, "/home/harshraj/COALESCE-Hashed-Perceptron-Cache-Replacement-Policy/simulator/traces/barnes_4t3.champsimtrace")
Heartbeat CPU 2 instructions: 540000001 cycles: 135009444 heartbeat IPC: 4 cumulative IPC: 4 (Simulation time: 02 hr 49 min 34 sec)
Heartbeat CPU 3 instructions: 540000006 cycles: 135017230 heartbeat IPC: 3.988 cumulative IPC: 4 (Simulation time: 02 hr 49 min 34 sec)
Heartbeat CPU 1 instructions: 310000043 cycles: 136115437 heartbeat IPC: 2.063 cumulative IPC: 1.958 (Simulation time: 02 hr 50 min 45 sec)
Heartbeat CPU 0 instructions: 90000010 cycles: 137325519 heartbeat IPC: 0.5135 cumulative IPC: 0.5198 (Simulation time: 02 hr 52 min 02 sec)
Heartbeat CPU 2 instructions: 550000001 cycles: 137509444 heartbeat IPC: 4 cumulative IPC: 4 (Simulation time: 02 hr 52 min 14 sec)
Heartbeat CPU 3 instructions: 550000006 cycles: 137517230 heartbeat IPC: 4 cumulative IPC: 4 (Simulation time: 02 hr 52 min 15 sec)
*** Reached end of trace: (2, "/home/harshraj/COALESCE-Hashed-Perceptron-Cache-Replacement-Policy/simulator/traces/barnes_4t2.champsimtrace")
Heartbeat CPU 2 instructions: 560000001 cycles: 140016313 heartbeat IPC: 3.989 cumulative IPC: 4 (Simulation time: 02 hr 54 min 56 sec)
Heartbeat CPU 3 instructions: 560000006 cycles: 140017230 heartbeat IPC: 4 cumulative IPC: 4 (Simulation time: 02 hr 54 min 56 sec)
Heartbeat CPU 1 instructions: 320000046 cycles: 141254017 heartbeat IPC: 1.946 cumulative IPC: 1.958 (Simulation time: 02 hr 56 min 19 sec)
Heartbeat CPU 2 instructions: 570000001 cycles: 142516313 heartbeat IPC: 4 cumulative IPC: 4 (Simulation time: 02 hr 57 min 40 sec)
Heartbeat CPU 3 instructions: 570000006 cycles: 142517230 heartbeat IPC: 4 cumulative IPC: 4 (Simulation time: 02 hr 57 min 41 sec)
Heartbeat CPU 2 instructions: 580000001 cycles: 145016313 heartbeat IPC: 4 cumulative IPC: 4 (Simulation time: 03 hr 00 min 22 sec)
Heartbeat CPU 3 instructions: 580000006 cycles: 145017230 heartbeat IPC: 4 cumulative IPC: 4 (Simulation time: 03 hr 00 min 22 sec)
Heartbeat CPU 1 instructions: 330000048 cycles: 146318659 heartbeat IPC: 1.974 cumulative IPC: 1.959 (Simulation time: 03 hr 01 min 45 sec)
Heartbeat CPU 2 instructions: 590000001 cycles: 147516313 heartbeat IPC: 4 cumulative IPC: 4 (Simulation time: 03 hr 03 min 02 sec)
Heartbeat CPU 3 instructions: 590000006 cycles: 147517230 heartbeat IPC: 4 cumulative IPC: 4 (Simulation time: 03 hr 03 min 02 sec)
Heartbeat CPU 2 instructions: 600000001 cycles: 150016313 heartbeat IPC: 4 cumulative IPC: 4 (Simulation time: 03 hr 05 min 43 sec)
Heartbeat CPU 3 instructions: 600000006 cycles: 150017230 heartbeat IPC: 4 cumulative IPC: 4 (Simulation time: 03 hr 05 min 43 sec)
Heartbeat CPU 1 instructions: 340000051 cycles: 151111053 heartbeat IPC: 2.087 cumulative IPC: 1.965 (Simulation time: 03 hr 06 min 53 sec)
Heartbeat CPU 2 instructions: 610000001 cycles: 152516313 heartbeat IPC: 4 cumulative IPC: 4 (Simulation time: 03 hr 08 min 22 sec)
Heartbeat CPU 3 instructions: 610000006 cycles: 152517230 heartbeat IPC: 4 cumulative IPC: 4 (Simulation time: 03 hr 08 min 22 sec)
Heartbeat CPU 2 instructions: 620000001 cycles: 155016313 heartbeat IPC: 4 cumulative IPC: 4 (Simulation time: 03 hr 11 min 04 sec)
Heartbeat CPU 3 instructions: 620000006 cycles: 155017230 heartbeat IPC: 4 cumulative IPC: 4 (Simulation time: 03 hr 11 min 04 sec)
Heartbeat CPU 1 instructions: 350000052 cycles: 155549816 heartbeat IPC: 2.253 cumulative IPC: 1.979 (Simulation time: 03 hr 11 min 38 sec)
Heartbeat CPU 0 instructions: 100000014 cycles: 155774952 heartbeat IPC: 0.542 cumulative IPC: 0.5241 (Simulation time: 03 hr 11 min 52 sec)
Heartbeat CPU 2 instructions: 630000001 cycles: 157516313 heartbeat IPC: 4 cumulative IPC: 4 (Simulation time: 03 hr 13 min 44 sec)
Heartbeat CPU 3 instructions: 630000006 cycles: 157517230 heartbeat IPC: 4 cumulative IPC: 4 (Simulation time: 03 hr 13 min 44 sec)
Heartbeat CPU 2 instructions: 640000001 cycles: 160016313 heartbeat IPC: 4 cumulative IPC: 4 (Simulation time: 03 hr 16 min 29 sec)
Heartbeat CPU 3 instructions: 640000006 cycles: 160017230 heartbeat IPC: 4 cumulative IPC: 4 (Simulation time: 03 hr 16 min 29 sec)
Heartbeat CPU 1 instructions: 360000055 cycles: 160536766 heartbeat IPC: 2.005 cumulative IPC: 1.98 (Simulation time: 03 hr 17 min 04 sec)
Heartbeat CPU 2 instructions: 650000001 cycles: 162516313 heartbeat IPC: 4 cumulative IPC: 4 (Simulation time: 03 hr 19 min 12 sec)
Heartbeat CPU 3 instructions: 650000006 cycles: 162517230 heartbeat IPC: 4 cumulative IPC: 4 (Simulation time: 03 hr 19 min 12 sec)
Heartbeat CPU 2 instructions: 660000001 cycles: 165016313 heartbeat IPC: 4 cumulative IPC: 4 (Simulation time: 03 hr 21 min 54 sec)
Heartbeat CPU 3 instructions: 660000006 cycles: 165017230 heartbeat IPC: 4 cumulative IPC: 4 (Simulation time: 03 hr 21 min 54 sec)
Heartbeat CPU 1 instructions: 370000056 cycles: 165199796 heartbeat IPC: 2.145 cumulative IPC: 1.987 (Simulation time: 03 hr 22 min 06 sec)
Heartbeat CPU 2 instructions: 670000001 cycles: 167516313 heartbeat IPC: 4 cumulative IPC: 4 (Simulation time: 03 hr 24 min 40 sec)
Heartbeat CPU 3 instructions: 670000006 cycles: 167517230 heartbeat IPC: 4 cumulative IPC: 4 (Simulation time: 03 hr 24 min 40 sec)
Heartbeat CPU 2 instructions: 680000001 cycles: 170016313 heartbeat IPC: 4 cumulative IPC: 4 (Simulation time: 03 hr 27 min 23 sec)
Heartbeat CPU 3 instructions: 680000006 cycles: 170017230 heartbeat IPC: 4 cumulative IPC: 4 (Simulation time: 03 hr 27 min 23 sec)
Heartbeat CPU 1 instructions: 380000058 cycles: 170177882 heartbeat IPC: 2.009 cumulative IPC: 1.988 (Simulation time: 03 hr 27 min 33 sec)
Heartbeat CPU 2 instructions: 690000001 cycles: 172516313 heartbeat IPC: 4 cumulative IPC: 4 (Simulation time: 03 hr 30 min 05 sec)
Heartbeat CPU 3 instructions: 690000006 cycles: 172517230 heartbeat IPC: 4 cumulative IPC: 4 (Simulation time: 03 hr 30 min 05 sec)
Heartbeat CPU 0 instructions: 110000014 cycles: 172802426 heartbeat IPC: 0.5873 cumulative IPC: 0.5337 (Simulation time: 03 hr 30 min 23 sec)
Heartbeat CPU 2 instructions: 700000001 cycles: 175016313 heartbeat IPC: 4 cumulative IPC: 4 (Simulation time: 03 hr 32 min 49 sec)
Heartbeat CPU 3 instructions: 700000006 cycles: 175017230 heartbeat IPC: 4 cumulative IPC: 4 (Simulation time: 03 hr 32 min 49 sec)
Heartbeat CPU 1 instructions: 390000061 cycles: 175867301 heartbeat IPC: 1.758 cumulative IPC: 1.977 (Simulation time: 03 hr 33 min 44 sec)
Heartbeat CPU 2 instructions: 710000001 cycles: 177516313 heartbeat IPC: 4 cumulative IPC: 4 (Simulation time: 03 hr 35 min 32 sec)
Heartbeat CPU 3 instructions: 710000006 cycles: 177517230 heartbeat IPC: 4 cumulative IPC: 4 (Simulation time: 03 hr 35 min 32 sec)
Heartbeat CPU 2 instructions: 720000001 cycles: 180016313 heartbeat IPC: 4 cumulative IPC: 4 (Simulation time: 03 hr 38 min 10 sec)
Heartbeat CPU 3 instructions: 720000006 cycles: 180017230 heartbeat IPC: 4 cumulative IPC: 4 (Simulation time: 03 hr 38 min 10 sec)
Heartbeat CPU 1 instructions: 400000063 cycles: 181864510 heartbeat IPC: 1.667 cumulative IPC: 1.962 (Simulation time: 03 hr 40 min 07 sec)
Heartbeat CPU 2 instructions: 730000001 cycles: 182516313 heartbeat IPC: 4 cumulative IPC: 4 (Simulation time: 03 hr 40 min 50 sec)
Heartbeat CPU 3 instructions: 730000006 cycles: 182517230 heartbeat IPC: 4 cumulative IPC: 4 (Simulation time: 03 hr 40 min 50 sec)
Heartbeat CPU 2 instructions: 740000001 cycles: 185016313 heartbeat IPC: 4 cumulative IPC: 4 (Simulation time: 03 hr 43 min 33 sec)
Heartbeat CPU 3 instructions: 740000006 cycles: 185017230 heartbeat IPC: 4 cumulative IPC: 4 (Simulation time: 03 hr 43 min 33 sec)
Heartbeat CPU 1 instructions: 410000064 cycles: 187344196 heartbeat IPC: 1.825 cumulative IPC: 1.956 (Simulation time: 03 hr 46 min 08 sec)
Heartbeat CPU 2 instructions: 750000001 cycles: 187516313 heartbeat IPC: 4 cumulative IPC: 4 (Simulation time: 03 hr 46 min 19 sec)
Heartbeat CPU 3 instructions: 750000006 cycles: 187517230 heartbeat IPC: 4 cumulative IPC: 4 (Simulation time: 03 hr 46 min 19 sec)
Heartbeat CPU 0 instructions: 120000015 cycles: 189177509 heartbeat IPC: 0.6107 cumulative IPC: 0.5435 (Simulation time: 03 hr 48 min 10 sec)
Heartbeat CPU 2 instructions: 760000001 cycles: 190016313 heartbeat IPC: 4 cumulative IPC: 4 (Simulation time: 03 hr 49 min 06 sec)
Heartbeat CPU 3 instructions: 760000006 cycles: 190017230 heartbeat IPC: 4 cumulative IPC: 4 (Simulation time: 03 hr 49 min 06 sec)
Heartbeat CPU 2 instructions: 770000001 cycles: 192516313 heartbeat IPC: 4 cumulative IPC: 4 (Simulation time: 03 hr 51 min 58 sec)
Heartbeat CPU 3 instructions: 770000006 cycles: 192517230 heartbeat IPC: 4 cumulative IPC: 4 (Simulation time: 03 hr 51 min 58 sec)
Heartbeat CPU 2 instructions: 780000001 cycles: 195016313 heartbeat IPC: 4 cumulative IPC: 4 (Simulation time: 03 hr 54 min 45 sec)
Heartbeat CPU 3 instructions: 780000006 cycles: 195017230 heartbeat IPC: 4 cumulative IPC: 4 (Simulation time: 03 hr 54 min 45 sec)
Heartbeat CPU 1 instructions: 420000066 cycles: 195159611 heartbeat IPC: 1.28 cumulative IPC: 1.917 (Simulation time: 03 hr 54 min 54 sec)
Heartbeat CPU 2 instructions: 790000001 cycles: 197516313 heartbeat IPC: 4 cumulative IPC: 4 (Simulation time: 03 hr 57 min 32 sec)
Heartbeat CPU 3 instructions: 790000006 cycles: 197517230 heartbeat IPC: 4 cumulative IPC: 4 (Simulation time: 03 hr 57 min 32 sec)
Heartbeat CPU 2 instructions: 800000001 cycles: 200016313 heartbeat IPC: 4 cumulative IPC: 4 (Simulation time: 04 hr 00 min 38 sec)
Heartbeat CPU 3 instructions: 800000006 cycles: 200017230 heartbeat IPC: 4 cumulative IPC: 4 (Simulation time: 04 hr 00 min 38 sec)
Heartbeat CPU 1 instructions: 430000066 cycles: 200913697 heartbeat IPC: 1.738 cumulative IPC: 1.909 (Simulation time: 04 hr 01 min 44 sec)
Heartbeat CPU 0 instructions: 130000017 cycles: 201399978 heartbeat IPC: 0.8182 cumulative IPC: 0.5673 (Simulation time: 04 hr 02 min 18 sec)
Heartbeat CPU 2 instructions: 810000001 cycles: 202516313 heartbeat IPC: 4 cumulative IPC: 4 (Simulation time: 04 hr 03 min 34 sec)
Heartbeat CPU 3 instructions: 810000006 cycles: 202517230 heartbeat IPC: 4 cumulative IPC: 4 (Simulation time: 04 hr 03 min 34 sec)
Heartbeat CPU 2 instructions: 820000001 cycles: 205016313 heartbeat IPC: 4 cumulative IPC: 4 (Simulation time: 04 hr 06 min 37 sec)
Heartbeat CPU 3 instructions: 820000006 cycles: 205017230 heartbeat IPC: 4 cumulative IPC: 4 (Simulation time: 04 hr 06 min 37 sec)
Heartbeat CPU 1 instructions: 440000069 cycles: 205876451 heartbeat IPC: 2.015 cumulative IPC: 1.913 (Simulation time: 04 hr 07 min 40 sec)
Heartbeat CPU 2 instructions: 830000001 cycles: 207516313 heartbeat IPC: 4 cumulative IPC: 4 (Simulation time: 04 hr 09 min 53 sec)
Heartbeat CPU 3 instructions: 830000006 cycles: 207517230 heartbeat IPC: 4 cumulative IPC: 4 (Simulation time: 04 hr 09 min 53 sec)
Heartbeat CPU 0 instructions: 140000018 cycles: 208032564 heartbeat IPC: 1.508 cumulative IPC: 0.6095 (Simulation time: 04 hr 10 min 34 sec)
Heartbeat CPU 2 instructions: 840000001 cycles: 210016313 heartbeat IPC: 4 cumulative IPC: 4 (Simulation time: 04 hr 13 min 05 sec)
Heartbeat CPU 3 instructions: 840000006 cycles: 210017230 heartbeat IPC: 4 cumulative IPC: 4 (Simulation time: 04 hr 13 min 05 sec)
Heartbeat CPU 1 instructions: 450000070 cycles: 210967073 heartbeat IPC: 1.964 cumulative IPC: 1.915 (Simulation time: 04 hr 14 min 14 sec)
Heartbeat CPU 2 instructions: 850000001 cycles: 212516313 heartbeat IPC: 4 cumulative IPC: 4 (Simulation time: 04 hr 16 min 09 sec)
Heartbeat CPU 3 instructions: 850000006 cycles: 212517230 heartbeat IPC: 4 cumulative IPC: 4 (Simulation time: 04 hr 16 min 09 sec)
Heartbeat CPU 2 instructions: 860000001 cycles: 215016313 heartbeat IPC: 4 cumulative IPC: 4 (Simulation time: 04 hr 19 min 14 sec)
Heartbeat CPU 3 instructions: 860000006 cycles: 215017230 heartbeat IPC: 4 cumulative IPC: 4 (Simulation time: 04 hr 19 min 14 sec)
Heartbeat CPU 1 instructions: 460000072 cycles: 215818973 heartbeat IPC: 2.061 cumulative IPC: 1.919 (Simulation time: 04 hr 20 min 19 sec)
Heartbeat CPU 2 instructions: 870000001 cycles: 217516313 heartbeat IPC: 4 cumulative IPC: 4 (Simulation time: 04 hr 22 min 13 sec)
Heartbeat CPU 3 instructions: 870000006 cycles: 217517230 heartbeat IPC: 4 cumulative IPC: 4 (Simulation time: 04 hr 22 min 13 sec)
Simulation finished CPU 0 instructions: 100000004 cycles: 159098740 cumulative IPC: 0.6285 (Simulation time: 04 hr 24 min 20 sec)
Simulation complete CPU 3 instructions: 636364024 cycles: 159098740 cumulative IPC: 4 (Simulation time: 04 hr 24 min 20 sec)
Simulation complete CPU 2 instructions: 636367236 cycles: 159098740 cumulative IPC: 4 (Simulation time: 04 hr 24 min 20 sec)
Simulation complete CPU 1 instructions: 305537743 cycles: 159098740 cumulative IPC: 1.92 (Simulation time: 04 hr 24 min 20 sec)
Simulation complete CPU 0 instructions: 100000004 cycles: 159098740 cumulative IPC: 0.6285 (Simulation time: 04 hr 24 min 20 sec)

ChampSim completed all CPUs

=== Simulation ===
CPU 0 runs /home/harshraj/COALESCE-Hashed-Perceptron-Cache-Replacement-Policy/simulator/traces/barnes_4t0.champsimtrace
CPU 1 runs /home/harshraj/COALESCE-Hashed-Perceptron-Cache-Replacement-Policy/simulator/traces/barnes_4t1.champsimtrace
CPU 2 runs /home/harshraj/COALESCE-Hashed-Perceptron-Cache-Replacement-Policy/simulator/traces/barnes_4t2.champsimtrace
CPU 3 runs /home/harshraj/COALESCE-Hashed-Perceptron-Cache-Replacement-Policy/simulator/traces/barnes_4t3.champsimtrace

Total Simulation Statistics (not including warmup)

CPU 3 cumulative IPC: 4 instructions: 636364024 cycles: 159098740
CPU 3 Branch Prediction Accuracy: -% MPKI: 0 Average ROB Occupancy at Mispredict: -
Branch type MPKI
BRANCH_DIRECT_JUMP: 0
BRANCH_INDIRECT: 0
BRANCH_CONDITIONAL: 0
BRANCH_DIRECT_CALL: 0
BRANCH_INDIRECT_CALL: 0
BRANCH_RETURN: 0


CPU 2 cumulative IPC: 4 instructions: 636367236 cycles: 159098740
CPU 2 Branch Prediction Accuracy: -% MPKI: 0 Average ROB Occupancy at Mispredict: -
Branch type MPKI
BRANCH_DIRECT_JUMP: 0
BRANCH_INDIRECT: 0
BRANCH_CONDITIONAL: 0
BRANCH_DIRECT_CALL: 0
BRANCH_INDIRECT_CALL: 0
BRANCH_RETURN: 0


CPU 1 cumulative IPC: 1.92 instructions: 305537743 cycles: 159098740
CPU 1 Branch Prediction Accuracy: -% MPKI: 0 Average ROB Occupancy at Mispredict: -
Branch type MPKI
BRANCH_DIRECT_JUMP: 0
BRANCH_INDIRECT: 0
BRANCH_CONDITIONAL: 0
BRANCH_DIRECT_CALL: 0
BRANCH_INDIRECT_CALL: 0
BRANCH_RETURN: 0


CPU 0 cumulative IPC: 0.6285 instructions: 100000004 cycles: 159098740
CPU 0 Branch Prediction Accuracy: -% MPKI: 0 Average ROB Occupancy at Mispredict: -
Branch type MPKI
BRANCH_DIRECT_JUMP: 0
BRANCH_INDIRECT: 0
BRANCH_CONDITIONAL: 0
BRANCH_DIRECT_CALL: 0
BRANCH_INDIRECT_CALL: 0
BRANCH_RETURN: 0

cpu3->cpu3_STLB TOTAL        ACCESS:         18 HIT:          8 MISS:         10 MSHR_MERGE:          0
cpu3->cpu3_STLB LOAD         ACCESS:         18 HIT:          8 MISS:         10 MSHR_MERGE:          0
cpu3->cpu3_STLB RFO          ACCESS:          0 HIT:          0 MISS:          0 MSHR_MERGE:          0
cpu3->cpu3_STLB PREFETCH     ACCESS:          0 HIT:          0 MISS:          0 MSHR_MERGE:          0
cpu3->cpu3_STLB WRITE        ACCESS:          0 HIT:          0 MISS:          0 MSHR_MERGE:          0
cpu3->cpu3_STLB TRANSLATION  ACCESS:          0 HIT:          0 MISS:          0 MSHR_MERGE:          0
cpu3->cpu3_STLB PREFETCH REQUESTED:          0 ISSUED:          0 USEFUL:          0 USELESS:          0
cpu3->cpu3_STLB AVERAGE MISS LATENCY: 708.4 cycles
cpu3_STLB COHERENCE INVALIDATIONS:          0
cpu3_STLB COHERENCE WRITE-HIT OTHER-SHARER EVENTS:          0
cpu3->cpu3_L2C TOTAL        ACCESS:         58 HIT:          4 MISS:         54 MSHR_MERGE:          0
cpu3->cpu3_L2C LOAD         ACCESS:         38 HIT:          4 MISS:         34 MSHR_MERGE:          0
cpu3->cpu3_L2C RFO          ACCESS:          0 HIT:          0 MISS:          0 MSHR_MERGE:          0
cpu3->cpu3_L2C PREFETCH     ACCESS:          0 HIT:          0 MISS:          0 MSHR_MERGE:          0
cpu3->cpu3_L2C WRITE        ACCESS:          0 HIT:          0 MISS:          0 MSHR_MERGE:          0
cpu3->cpu3_L2C TRANSLATION  ACCESS:         20 HIT:          0 MISS:         20 MSHR_MERGE:          0
cpu3->cpu3_L2C PREFETCH REQUESTED:          0 ISSUED:          0 USEFUL:          0 USELESS:          0
cpu3->cpu3_L2C AVERAGE MISS LATENCY: 213.3 cycles
cpu3_L2C COHERENCE INVALIDATIONS:          0
cpu3_L2C COHERENCE WRITE-HIT OTHER-SHARER EVENTS:          0
cpu3->cpu3_L1I TOTAL        ACCESS:   99308726 HIT:   99308673 MISS:         53 MSHR_MERGE:         15
cpu3->cpu3_L1I LOAD         ACCESS:   99308726 HIT:   99308673 MISS:         53 MSHR_MERGE:         15
cpu3->cpu3_L1I RFO          ACCESS:          0 HIT:          0 MISS:          0 MSHR_MERGE:          0
cpu3->cpu3_L1I PREFETCH     ACCESS:          0 HIT:          0 MISS:          0 MSHR_MERGE:          0
cpu3->cpu3_L1I WRITE        ACCESS:          0 HIT:          0 MISS:          0 MSHR_MERGE:          0
cpu3->cpu3_L1I TRANSLATION  ACCESS:          0 HIT:          0 MISS:          0 MSHR_MERGE:          0
cpu3->cpu3_L1I PREFETCH REQUESTED:          0 ISSUED:          0 USEFUL:          0 USELESS:          0
cpu3->cpu3_L1I AVERAGE MISS LATENCY: 205.7 cycles
cpu3_L1I COHERENCE INVALIDATIONS:          0
cpu3_L1I COHERENCE WRITE-HIT OTHER-SHARER EVENTS:          0
cpu3->cpu3_L1D TOTAL        ACCESS:         20 HIT:          0 MISS:         20 MSHR_MERGE:          0
cpu3->cpu3_L1D LOAD         ACCESS:          0 HIT:          0 MISS:          0 MSHR_MERGE:          0
cpu3->cpu3_L1D RFO          ACCESS:          0 HIT:          0 MISS:          0 MSHR_MERGE:          0
cpu3->cpu3_L1D PREFETCH     ACCESS:          0 HIT:          0 MISS:          0 MSHR_MERGE:          0
cpu3->cpu3_L1D WRITE        ACCESS:          0 HIT:          0 MISS:          0 MSHR_MERGE:          0
cpu3->cpu3_L1D TRANSLATION  ACCESS:         20 HIT:          0 MISS:         20 MSHR_MERGE:          0
cpu3->cpu3_L1D PREFETCH REQUESTED:          0 ISSUED:          0 USEFUL:          0 USELESS:          0
cpu3->cpu3_L1D AVERAGE MISS LATENCY: 208.2 cycles
cpu3_L1D COHERENCE INVALIDATIONS:          0
cpu3_L1D COHERENCE WRITE-HIT OTHER-SHARER EVENTS:          0
cpu3->cpu3_ITLB TOTAL        ACCESS:   78426278 HIT:   78426247 MISS:         31 MSHR_MERGE:         13
cpu3->cpu3_ITLB LOAD         ACCESS:   78426278 HIT:   78426247 MISS:         31 MSHR_MERGE:         13
cpu3->cpu3_ITLB RFO          ACCESS:          0 HIT:          0 MISS:          0 MSHR_MERGE:          0
cpu3->cpu3_ITLB PREFETCH     ACCESS:          0 HIT:          0 MISS:          0 MSHR_MERGE:          0
cpu3->cpu3_ITLB WRITE        ACCESS:          0 HIT:          0 MISS:          0 MSHR_MERGE:          0
cpu3->cpu3_ITLB TRANSLATION  ACCESS:          0 HIT:          0 MISS:          0 MSHR_MERGE:          0
cpu3->cpu3_ITLB PREFETCH REQUESTED:          0 ISSUED:          0 USEFUL:          0 USELESS:          0
cpu3->cpu3_ITLB AVERAGE MISS LATENCY: 398.1 cycles
cpu3_ITLB COHERENCE INVALIDATIONS:          0
cpu3_ITLB COHERENCE WRITE-HIT OTHER-SHARER EVENTS:          0
cpu3_DTLB COHERENCE INVALIDATIONS:          0
cpu3_DTLB COHERENCE WRITE-HIT OTHER-SHARER EVENTS:          0
cpu2->cpu2_STLB TOTAL        ACCESS:         17 HIT:          7 MISS:         10 MSHR_MERGE:          0
cpu2->cpu2_STLB LOAD         ACCESS:         17 HIT:          7 MISS:         10 MSHR_MERGE:          0
cpu2->cpu2_STLB RFO          ACCESS:          0 HIT:          0 MISS:          0 MSHR_MERGE:          0
cpu2->cpu2_STLB PREFETCH     ACCESS:          0 HIT:          0 MISS:          0 MSHR_MERGE:          0
cpu2->cpu2_STLB WRITE        ACCESS:          0 HIT:          0 MISS:          0 MSHR_MERGE:          0
cpu2->cpu2_STLB TRANSLATION  ACCESS:          0 HIT:          0 MISS:          0 MSHR_MERGE:          0
cpu2->cpu2_STLB PREFETCH REQUESTED:          0 ISSUED:          0 USEFUL:          0 USELESS:          0
cpu2->cpu2_STLB AVERAGE MISS LATENCY: 629.4 cycles
cpu2_STLB COHERENCE INVALIDATIONS:          0
cpu2_STLB COHERENCE WRITE-HIT OTHER-SHARER EVENTS:          0
cpu2->cpu2_L2C TOTAL        ACCESS:         58 HIT:          4 MISS:         54 MSHR_MERGE:          0
cpu2->cpu2_L2C LOAD         ACCESS:         38 HIT:          4 MISS:         34 MSHR_MERGE:          0
cpu2->cpu2_L2C RFO          ACCESS:          0 HIT:          0 MISS:          0 MSHR_MERGE:          0
cpu2->cpu2_L2C PREFETCH     ACCESS:          0 HIT:          0 MISS:          0 MSHR_MERGE:          0
cpu2->cpu2_L2C WRITE        ACCESS:          0 HIT:          0 MISS:          0 MSHR_MERGE:          0
cpu2->cpu2_L2C TRANSLATION  ACCESS:         20 HIT:          0 MISS:         20 MSHR_MERGE:          0
cpu2->cpu2_L2C PREFETCH REQUESTED:          0 ISSUED:          0 USEFUL:          0 USELESS:          0
cpu2->cpu2_L2C AVERAGE MISS LATENCY: 200.1 cycles
cpu2_L2C COHERENCE INVALIDATIONS:          0
cpu2_L2C COHERENCE WRITE-HIT OTHER-SHARER EVENTS:          0
cpu2->cpu2_L1I TOTAL        ACCESS:  102225472 HIT:  102225421 MISS:         51 MSHR_MERGE:         13
cpu2->cpu2_L1I LOAD         ACCESS:  102225472 HIT:  102225421 MISS:         51 MSHR_MERGE:         13
cpu2->cpu2_L1I RFO          ACCESS:          0 HIT:          0 MISS:          0 MSHR_MERGE:          0
cpu2->cpu2_L1I PREFETCH     ACCESS:          0 HIT:          0 MISS:          0 MSHR_MERGE:          0
cpu2->cpu2_L1I WRITE        ACCESS:          0 HIT:          0 MISS:          0 MSHR_MERGE:          0
cpu2->cpu2_L1I TRANSLATION  ACCESS:          0 HIT:          0 MISS:          0 MSHR_MERGE:          0
cpu2->cpu2_L1I PREFETCH REQUESTED:          0 ISSUED:          0 USEFUL:          0 USELESS:          0
cpu2->cpu2_L1I AVERAGE MISS LATENCY: 186.6 cycles
cpu2_L1I COHERENCE INVALIDATIONS:          0
cpu2_L1I COHERENCE WRITE-HIT OTHER-SHARER EVENTS:          0
cpu2->cpu2_L1D TOTAL        ACCESS:         20 HIT:          0 MISS:         20 MSHR_MERGE:          0
cpu2->cpu2_L1D LOAD         ACCESS:          0 HIT:          0 MISS:          0 MSHR_MERGE:          0
cpu2->cpu2_L1D RFO          ACCESS:          0 HIT:          0 MISS:          0 MSHR_MERGE:          0
cpu2->cpu2_L1D PREFETCH     ACCESS:          0 HIT:          0 MISS:          0 MSHR_MERGE:          0
cpu2->cpu2_L1D WRITE        ACCESS:          0 HIT:          0 MISS:          0 MSHR_MERGE:          0
cpu2->cpu2_L1D TRANSLATION  ACCESS:         20 HIT:          0 MISS:         20 MSHR_MERGE:          0
cpu2->cpu2_L1D PREFETCH REQUESTED:          0 ISSUED:          0 USEFUL:          0 USELESS:          0
cpu2->cpu2_L1D AVERAGE MISS LATENCY: 208.7 cycles
cpu2_L1D COHERENCE INVALIDATIONS:          0
cpu2_L1D COHERENCE WRITE-HIT OTHER-SHARER EVENTS:          0
cpu2->cpu2_ITLB TOTAL        ACCESS:   78883579 HIT:   78883550 MISS:         29 MSHR_MERGE:         12
cpu2->cpu2_ITLB LOAD         ACCESS:   78883579 HIT:   78883550 MISS:         29 MSHR_MERGE:         12
cpu2->cpu2_ITLB RFO          ACCESS:          0 HIT:          0 MISS:          0 MSHR_MERGE:          0
cpu2->cpu2_ITLB PREFETCH     ACCESS:          0 HIT:          0 MISS:          0 MSHR_MERGE:          0
cpu2->cpu2_ITLB WRITE        ACCESS:          0 HIT:          0 MISS:          0 MSHR_MERGE:          0
cpu2->cpu2_ITLB TRANSLATION  ACCESS:          0 HIT:          0 MISS:          0 MSHR_MERGE:          0
cpu2->cpu2_ITLB PREFETCH REQUESTED:          0 ISSUED:          0 USEFUL:          0 USELESS:          0
cpu2->cpu2_ITLB AVERAGE MISS LATENCY: 374.8 cycles
cpu2_ITLB COHERENCE INVALIDATIONS:          0
cpu2_ITLB COHERENCE WRITE-HIT OTHER-SHARER EVENTS:          0
cpu2_DTLB COHERENCE INVALIDATIONS:          0
cpu2_DTLB COHERENCE WRITE-HIT OTHER-SHARER EVENTS:          0
cpu1->cpu1_STLB TOTAL        ACCESS:    1141068 HIT:    1140900 MISS:        168 MSHR_MERGE:          0
cpu1->cpu1_STLB LOAD         ACCESS:    1141068 HIT:    1140900 MISS:        168 MSHR_MERGE:          0
cpu1->cpu1_STLB RFO          ACCESS:          0 HIT:          0 MISS:          0 MSHR_MERGE:          0
cpu1->cpu1_STLB PREFETCH     ACCESS:          0 HIT:          0 MISS:          0 MSHR_MERGE:          0
cpu1->cpu1_STLB WRITE        ACCESS:          0 HIT:          0 MISS:          0 MSHR_MERGE:          0
cpu1->cpu1_STLB TRANSLATION  ACCESS:          0 HIT:          0 MISS:          0 MSHR_MERGE:          0
cpu1->cpu1_STLB PREFETCH REQUESTED:          0 ISSUED:          0 USEFUL:          0 USELESS:          0
cpu1->cpu1_STLB AVERAGE MISS LATENCY: 640.4 cycles
cpu1_STLB COHERENCE INVALIDATIONS:          0
cpu1_STLB COHERENCE WRITE-HIT OTHER-SHARER EVENTS:          0
cpu1->cpu1_L2C TOTAL        ACCESS:    3406868 HIT:    3116424 MISS:     290444 MSHR_MERGE:          0
cpu1->cpu1_L2C LOAD         ACCESS:    3406671 HIT:    3116424 MISS:     290247 MSHR_MERGE:          0
cpu1->cpu1_L2C RFO          ACCESS:          0 HIT:          0 MISS:          0 MSHR_MERGE:          0
cpu1->cpu1_L2C PREFETCH     ACCESS:          0 HIT:          0 MISS:          0 MSHR_MERGE:          0
cpu1->cpu1_L2C WRITE        ACCESS:          0 HIT:          0 MISS:          0 MSHR_MERGE:          0
cpu1->cpu1_L2C TRANSLATION  ACCESS:        197 HIT:          0 MISS:        197 MSHR_MERGE:          0
cpu1->cpu1_L2C PREFETCH REQUESTED:          0 ISSUED:          0 USEFUL:          0 USELESS:          0
cpu1->cpu1_L2C AVERAGE MISS LATENCY: 108.3 cycles
cpu1_L2C COHERENCE INVALIDATIONS:          0
cpu1_L2C COHERENCE WRITE-HIT OTHER-SHARER EVENTS:          0
cpu1->cpu1_L1I TOTAL        ACCESS:   64241812 HIT:   60777258 MISS:    3464554 MSHR_MERGE:      57883
cpu1->cpu1_L1I LOAD         ACCESS:   64241812 HIT:   60777258 MISS:    3464554 MSHR_MERGE:      57883
cpu1->cpu1_L1I RFO          ACCESS:          0 HIT:          0 MISS:          0 MSHR_MERGE:          0
cpu1->cpu1_L1I PREFETCH     ACCESS:          0 HIT:          0 MISS:          0 MSHR_MERGE:          0
cpu1->cpu1_L1I WRITE        ACCESS:          0 HIT:          0 MISS:          0 MSHR_MERGE:          0
cpu1->cpu1_L1I TRANSLATION  ACCESS:          0 HIT:          0 MISS:          0 MSHR_MERGE:          0
cpu1->cpu1_L1I PREFETCH REQUESTED:          0 ISSUED:          0 USEFUL:          0 USELESS:          0
cpu1->cpu1_L1I AVERAGE MISS LATENCY: 16.49 cycles
cpu1_L1I COHERENCE INVALIDATIONS:          0
cpu1_L1I COHERENCE WRITE-HIT OTHER-SHARER EVENTS:          0
cpu1->cpu1_L1D TOTAL        ACCESS:        339 HIT:        142 MISS:        197 MSHR_MERGE:          0
cpu1->cpu1_L1D LOAD         ACCESS:          0 HIT:          0 MISS:          0 MSHR_MERGE:          0
cpu1->cpu1_L1D RFO          ACCESS:          0 HIT:          0 MISS:          0 MSHR_MERGE:          0
cpu1->cpu1_L1D PREFETCH     ACCESS:          0 HIT:          0 MISS:          0 MSHR_MERGE:          0
cpu1->cpu1_L1D WRITE        ACCESS:          0 HIT:          0 MISS:          0 MSHR_MERGE:          0
cpu1->cpu1_L1D TRANSLATION  ACCESS:        339 HIT:        142 MISS:        197 MSHR_MERGE:          0
cpu1->cpu1_L1D PREFETCH REQUESTED:          0 ISSUED:          0 USEFUL:          0 USELESS:          0
cpu1->cpu1_L1D AVERAGE MISS LATENCY: 198.5 cycles
cpu1_L1D COHERENCE INVALIDATIONS:          0
cpu1_L1D COHERENCE WRITE-HIT OTHER-SHARER EVENTS:          0
cpu1->cpu1_ITLB TOTAL        ACCESS:   61745205 HIT:   60542854 MISS:    1202351 MSHR_MERGE:      61283
cpu1->cpu1_ITLB LOAD         ACCESS:   61745205 HIT:   60542854 MISS:    1202351 MSHR_MERGE:      61283
cpu1->cpu1_ITLB RFO          ACCESS:          0 HIT:          0 MISS:          0 MSHR_MERGE:          0
cpu1->cpu1_ITLB PREFETCH     ACCESS:          0 HIT:          0 MISS:          0 MSHR_MERGE:          0
cpu1->cpu1_ITLB WRITE        ACCESS:          0 HIT:          0 MISS:          0 MSHR_MERGE:          0
cpu1->cpu1_ITLB TRANSLATION  ACCESS:          0 HIT:          0 MISS:          0 MSHR_MERGE:          0
cpu1->cpu1_ITLB PREFETCH REQUESTED:          0 ISSUED:          0 USEFUL:          0 USELESS:          0
cpu1->cpu1_ITLB AVERAGE MISS LATENCY: 4.094 cycles
cpu1_ITLB COHERENCE INVALIDATIONS:          0
cpu1_ITLB COHERENCE WRITE-HIT OTHER-SHARER EVENTS:          0
cpu1_DTLB COHERENCE INVALIDATIONS:          0
cpu1_DTLB COHERENCE WRITE-HIT OTHER-SHARER EVENTS:          0
cpu0->cpu0_STLB TOTAL        ACCESS:    3020205 HIT:    3007268 MISS:      12937 MSHR_MERGE:          0
cpu0->cpu0_STLB LOAD         ACCESS:    3020205 HIT:    3007268 MISS:      12937 MSHR_MERGE:          0
cpu0->cpu0_STLB RFO          ACCESS:          0 HIT:          0 MISS:          0 MSHR_MERGE:          0
cpu0->cpu0_STLB PREFETCH     ACCESS:          0 HIT:          0 MISS:          0 MSHR_MERGE:          0
cpu0->cpu0_STLB WRITE        ACCESS:          0 HIT:          0 MISS:          0 MSHR_MERGE:          0
cpu0->cpu0_STLB TRANSLATION  ACCESS:          0 HIT:          0 MISS:          0 MSHR_MERGE:          0
cpu0->cpu0_STLB PREFETCH REQUESTED:          0 ISSUED:          0 USEFUL:          0 USELESS:          0
cpu0->cpu0_STLB AVERAGE MISS LATENCY: 258.1 cycles
cpu0_STLB COHERENCE INVALIDATIONS:          0
cpu0_STLB COHERENCE WRITE-HIT OTHER-SHARER EVENTS:          0
cpu0->cpu0_L2C TOTAL        ACCESS:    4709703 HIT:    4298958 MISS:     410745 MSHR_MERGE:          0
cpu0->cpu0_L2C LOAD         ACCESS:    3758984 HIT:    3414174 MISS:     344810 MSHR_MERGE:          0
cpu0->cpu0_L2C RFO          ACCESS:     343441 HIT:     291537 MISS:      51904 MSHR_MERGE:          0
cpu0->cpu0_L2C PREFETCH     ACCESS:          0 HIT:          0 MISS:          0 MSHR_MERGE:          0
cpu0->cpu0_L2C WRITE        ACCESS:     579081 HIT:     578797 MISS:        284 MSHR_MERGE:          0
cpu0->cpu0_L2C TRANSLATION  ACCESS:      28197 HIT:      14450 MISS:      13747 MSHR_MERGE:          0
cpu0->cpu0_L2C PREFETCH REQUESTED:          0 ISSUED:          0 USEFUL:          0 USELESS:          0
cpu0->cpu0_L2C AVERAGE MISS LATENCY: 128 cycles
cpu0_L2C COHERENCE INVALIDATIONS:          0
cpu0_L2C COHERENCE WRITE-HIT OTHER-SHARER EVENTS:          0
cpu0->cpu0_L1I TOTAL        ACCESS:   25263287 HIT:   25263267 MISS:         20 MSHR_MERGE:          7
cpu0->cpu0_L1I LOAD         ACCESS:   25263287 HIT:   25263267 MISS:         20 MSHR_MERGE:          7
cpu0->cpu0_L1I RFO          ACCESS:          0 HIT:          0 MISS:          0 MSHR_MERGE:          0
cpu0->cpu0_L1I PREFETCH     ACCESS:          0 HIT:          0 MISS:          0 MSHR_MERGE:          0
cpu0->cpu0_L1I WRITE        ACCESS:          0 HIT:          0 MISS:          0 MSHR_MERGE:          0
cpu0->cpu0_L1I TRANSLATION  ACCESS:          0 HIT:          0 MISS:          0 MSHR_MERGE:          0
cpu0->cpu0_L1I PREFETCH REQUESTED:          0 ISSUED:          0 USEFUL:          0 USELESS:          0
cpu0->cpu0_L1I AVERAGE MISS LATENCY: 196.9 cycles
cpu0_L1I COHERENCE INVALIDATIONS:          0
cpu0_L1I COHERENCE WRITE-HIT OTHER-SHARER EVENTS:          0
cpu0->cpu0_L1D TOTAL        ACCESS:   63862928 HIT:   59651868 MISS:    4211060 MSHR_MERGE:      79974
cpu0->cpu0_L1D LOAD         ACCESS:   16888909 HIT:   13119587 MISS:    3769322 MSHR_MERGE:      10261
cpu0->cpu0_L1D RFO          ACCESS:          0 HIT:          0 MISS:          0 MSHR_MERGE:          0
cpu0->cpu0_L1D PREFETCH     ACCESS:          0 HIT:          0 MISS:          0 MSHR_MERGE:          0
cpu0->cpu0_L1D WRITE        ACCESS:   46942670 HIT:   46529137 MISS:     413533 MSHR_MERGE:      69705
cpu0->cpu0_L1D TRANSLATION  ACCESS:      31349 HIT:       3144 MISS:      28205 MSHR_MERGE:          8
cpu0->cpu0_L1D PREFETCH REQUESTED:          0 ISSUED:          0 USEFUL:          0 USELESS:          0
cpu0->cpu0_L1D AVERAGE MISS LATENCY: 20.03 cycles
cpu0_L1D COHERENCE INVALIDATIONS:          0
cpu0_L1D COHERENCE WRITE-HIT OTHER-SHARER EVENTS:          0
cpu0->cpu0_ITLB TOTAL        ACCESS:   22765469 HIT:   22765469 MISS:          0 MSHR_MERGE:          0
cpu0->cpu0_ITLB LOAD         ACCESS:   22765469 HIT:   22765469 MISS:          0 MSHR_MERGE:          0
cpu0->cpu0_ITLB RFO          ACCESS:          0 HIT:          0 MISS:          0 MSHR_MERGE:          0
cpu0->cpu0_ITLB PREFETCH     ACCESS:          0 HIT:          0 MISS:          0 MSHR_MERGE:          0
cpu0->cpu0_ITLB WRITE        ACCESS:          0 HIT:          0 MISS:          0 MSHR_MERGE:          0
cpu0->cpu0_ITLB TRANSLATION  ACCESS:          0 HIT:          0 MISS:          0 MSHR_MERGE:          0
cpu0->cpu0_ITLB PREFETCH REQUESTED:          0 ISSUED:          0 USEFUL:          0 USELESS:          0
cpu0->cpu0_ITLB AVERAGE MISS LATENCY: - cycles
cpu0_ITLB COHERENCE INVALIDATIONS:          0
cpu0_ITLB COHERENCE WRITE-HIT OTHER-SHARER EVENTS:          0
cpu0->cpu0_DTLB TOTAL        ACCESS:   62023141 HIT:   58831466 MISS:    3191675 MSHR_MERGE:     171470
cpu0->cpu0_DTLB LOAD         ACCESS:   62023141 HIT:   58831466 MISS:    3191675 MSHR_MERGE:     171470
cpu0->cpu0_DTLB RFO          ACCESS:          0 HIT:          0 MISS:          0 MSHR_MERGE:          0
cpu0->cpu0_DTLB PREFETCH     ACCESS:          0 HIT:          0 MISS:          0 MSHR_MERGE:          0
cpu0->cpu0_DTLB WRITE        ACCESS:          0 HIT:          0 MISS:          0 MSHR_MERGE:          0
cpu0->cpu0_DTLB TRANSLATION  ACCESS:          0 HIT:          0 MISS:          0 MSHR_MERGE:          0
cpu0->cpu0_DTLB PREFETCH REQUESTED:          0 ISSUED:          0 USEFUL:          0 USELESS:          0
cpu0->cpu0_DTLB AVERAGE MISS LATENCY: 5.11 cycles
cpu0_DTLB COHERENCE INVALIDATIONS:          0
cpu0_DTLB COHERENCE WRITE-HIT OTHER-SHARER EVENTS:          0
cpu0->LLC TOTAL        ACCESS:     515188 HIT:     227904 MISS:     287284 MSHR_MERGE:          0
cpu0->LLC LOAD         ACCESS:     344810 HIT:     148231 MISS:     196579 MSHR_MERGE:          0
cpu0->LLC RFO          ACCESS:      51904 HIT:      23647 MISS:      28257 MSHR_MERGE:          0
cpu0->LLC PREFETCH     ACCESS:          0 HIT:          0 MISS:          0 MSHR_MERGE:          0
cpu0->LLC WRITE        ACCESS:     104727 HIT:      54920 MISS:      49807 MSHR_MERGE:          0
cpu0->LLC TRANSLATION  ACCESS:      13747 HIT:       1106 MISS:      12641 MSHR_MERGE:          0
cpu0->LLC PREFETCH REQUESTED:          0 ISSUED:          0 USEFUL:          0 USELESS:          0
cpu0->LLC AVERAGE MISS LATENCY: 256.2 cycles
cpu1->LLC TOTAL        ACCESS:     290444 HIT:     139193 MISS:     151251 MSHR_MERGE:          1
cpu1->LLC LOAD         ACCESS:     290247 HIT:     139193 MISS:     151054 MSHR_MERGE:          1
cpu1->LLC RFO          ACCESS:          0 HIT:          0 MISS:          0 MSHR_MERGE:          0
cpu1->LLC PREFETCH     ACCESS:          0 HIT:          0 MISS:          0 MSHR_MERGE:          0
cpu1->LLC WRITE        ACCESS:          0 HIT:          0 MISS:          0 MSHR_MERGE:          0
cpu1->LLC TRANSLATION  ACCESS:        197 HIT:          0 MISS:        197 MSHR_MERGE:          0
cpu1->LLC PREFETCH REQUESTED:          0 ISSUED:          0 USEFUL:          0 USELESS:          0
cpu1->LLC AVERAGE MISS LATENCY: 486.6 cycles
cpu2->LLC TOTAL        ACCESS:         54 HIT:          0 MISS:         54 MSHR_MERGE:          0
cpu2->LLC LOAD         ACCESS:         34 HIT:          0 MISS:         34 MSHR_MERGE:          0
cpu2->LLC RFO          ACCESS:          0 HIT:          0 MISS:          0 MSHR_MERGE:          0
cpu2->LLC PREFETCH     ACCESS:          0 HIT:          0 MISS:          0 MSHR_MERGE:          0
cpu2->LLC WRITE        ACCESS:          0 HIT:          0 MISS:          0 MSHR_MERGE:          0
cpu2->LLC TRANSLATION  ACCESS:         20 HIT:          0 MISS:         20 MSHR_MERGE:          0
cpu2->LLC PREFETCH REQUESTED:          0 ISSUED:          0 USEFUL:          0 USELESS:          0
cpu2->LLC AVERAGE MISS LATENCY: 1.363e+06 cycles
cpu3->LLC TOTAL        ACCESS:         54 HIT:          0 MISS:         54 MSHR_MERGE:          0
cpu3->LLC LOAD         ACCESS:         34 HIT:          0 MISS:         34 MSHR_MERGE:          0
cpu3->LLC RFO          ACCESS:          0 HIT:          0 MISS:          0 MSHR_MERGE:          0
cpu3->LLC PREFETCH     ACCESS:          0 HIT:          0 MISS:          0 MSHR_MERGE:          0
cpu3->LLC WRITE        ACCESS:          0 HIT:          0 MISS:          0 MSHR_MERGE:          0
cpu3->LLC TRANSLATION  ACCESS:         20 HIT:          0 MISS:         20 MSHR_MERGE:          0
cpu3->LLC PREFETCH REQUESTED:          0 ISSUED:          0 USEFUL:          0 USELESS:          0
cpu3->LLC AVERAGE MISS LATENCY: 1.363e+06 cycles
LLC COHERENCE INVALIDATIONS:      31233
LLC COHERENCE WRITE-HIT OTHER-SHARER EVENTS:      31233

Region of Interest Statistics

CPU 3 cumulative IPC: 4 instructions: 100000000 cycles: 25000000
CPU 3 Branch Prediction Accuracy: -% MPKI: 0 Average ROB Occupancy at Mispredict: -
Branch type MPKI
BRANCH_DIRECT_JUMP: 0
BRANCH_INDIRECT: 0
BRANCH_CONDITIONAL: 0
BRANCH_DIRECT_CALL: 0
BRANCH_INDIRECT_CALL: 0
BRANCH_RETURN: 0


CPU 2 cumulative IPC: 4 instructions: 100000000 cycles: 25000000
CPU 2 Branch Prediction Accuracy: -% MPKI: 0 Average ROB Occupancy at Mispredict: -
Branch type MPKI
BRANCH_DIRECT_JUMP: 0
BRANCH_INDIRECT: 0
BRANCH_CONDITIONAL: 0
BRANCH_DIRECT_CALL: 0
BRANCH_INDIRECT_CALL: 0
BRANCH_RETURN: 0


CPU 1 cumulative IPC: 2.042 instructions: 100000002 cycles: 48975308
CPU 1 Branch Prediction Accuracy: -% MPKI: 0 Average ROB Occupancy at Mispredict: -
Branch type MPKI
BRANCH_DIRECT_JUMP: 0
BRANCH_INDIRECT: 0
BRANCH_CONDITIONAL: 0
BRANCH_DIRECT_CALL: 0
BRANCH_INDIRECT_CALL: 0
BRANCH_RETURN: 0


CPU 0 cumulative IPC: 0.6285 instructions: 100000004 cycles: 159098740
CPU 0 Branch Prediction Accuracy: -% MPKI: 0 Average ROB Occupancy at Mispredict: -
Branch type MPKI
BRANCH_DIRECT_JUMP: 0
BRANCH_INDIRECT: 0
BRANCH_CONDITIONAL: 0
BRANCH_DIRECT_CALL: 0
BRANCH_INDIRECT_CALL: 0
BRANCH_RETURN: 0

cpu3->cpu3_STLB TOTAL        ACCESS:         18 HIT:          8 MISS:         10 MSHR_MERGE:          0
cpu3->cpu3_STLB LOAD         ACCESS:         18 HIT:          8 MISS:         10 MSHR_MERGE:          0
cpu3->cpu3_STLB RFO          ACCESS:          0 HIT:          0 MISS:          0 MSHR_MERGE:          0
cpu3->cpu3_STLB PREFETCH     ACCESS:          0 HIT:          0 MISS:          0 MSHR_MERGE:          0
cpu3->cpu3_STLB WRITE        ACCESS:          0 HIT:          0 MISS:          0 MSHR_MERGE:          0
cpu3->cpu3_STLB TRANSLATION  ACCESS:          0 HIT:          0 MISS:          0 MSHR_MERGE:          0
cpu3->cpu3_STLB PREFETCH REQUESTED:          0 ISSUED:          0 USEFUL:          0 USELESS:          0
cpu3->cpu3_STLB AVERAGE MISS LATENCY: 708.4 cycles
cpu3_STLB COHERENCE INVALIDATIONS:          0
cpu3_STLB COHERENCE WRITE-HIT OTHER-SHARER EVENTS:          0
cpu3->cpu3_L2C TOTAL        ACCESS:         58 HIT:          4 MISS:         54 MSHR_MERGE:          0
cpu3->cpu3_L2C LOAD         ACCESS:         38 HIT:          4 MISS:         34 MSHR_MERGE:          0
cpu3->cpu3_L2C RFO          ACCESS:          0 HIT:          0 MISS:          0 MSHR_MERGE:          0
cpu3->cpu3_L2C PREFETCH     ACCESS:          0 HIT:          0 MISS:          0 MSHR_MERGE:          0
cpu3->cpu3_L2C WRITE        ACCESS:          0 HIT:          0 MISS:          0 MSHR_MERGE:          0
cpu3->cpu3_L2C TRANSLATION  ACCESS:         20 HIT:          0 MISS:         20 MSHR_MERGE:          0
cpu3->cpu3_L2C PREFETCH REQUESTED:          0 ISSUED:          0 USEFUL:          0 USELESS:          0
cpu3->cpu3_L2C AVERAGE MISS LATENCY: 213.3 cycles
cpu3_L2C COHERENCE INVALIDATIONS:          0
cpu3_L2C COHERENCE WRITE-HIT OTHER-SHARER EVENTS:          0
cpu3->cpu3_L1I TOTAL        ACCESS:   99308726 HIT:   99308673 MISS:         53 MSHR_MERGE:         15
cpu3->cpu3_L1I LOAD         ACCESS:   99308726 HIT:   99308673 MISS:         53 MSHR_MERGE:         15
cpu3->cpu3_L1I RFO          ACCESS:          0 HIT:          0 MISS:          0 MSHR_MERGE:          0
cpu3->cpu3_L1I PREFETCH     ACCESS:          0 HIT:          0 MISS:          0 MSHR_MERGE:          0
cpu3->cpu3_L1I WRITE        ACCESS:          0 HIT:          0 MISS:          0 MSHR_MERGE:          0
cpu3->cpu3_L1I TRANSLATION  ACCESS:          0 HIT:          0 MISS:          0 MSHR_MERGE:          0
cpu3->cpu3_L1I PREFETCH REQUESTED:          0 ISSUED:          0 USEFUL:          0 USELESS:          0
cpu3->cpu3_L1I AVERAGE MISS LATENCY: 205.7 cycles
cpu3_L1I COHERENCE INVALIDATIONS:          0
cpu3_L1I COHERENCE WRITE-HIT OTHER-SHARER EVENTS:          0
cpu3->cpu3_L1D TOTAL        ACCESS:         20 HIT:          0 MISS:         20 MSHR_MERGE:          0
cpu3->cpu3_L1D LOAD         ACCESS:          0 HIT:          0 MISS:          0 MSHR_MERGE:          0
cpu3->cpu3_L1D RFO          ACCESS:          0 HIT:          0 MISS:          0 MSHR_MERGE:          0
cpu3->cpu3_L1D PREFETCH     ACCESS:          0 HIT:          0 MISS:          0 MSHR_MERGE:          0
cpu3->cpu3_L1D WRITE        ACCESS:          0 HIT:          0 MISS:          0 MSHR_MERGE:          0
cpu3->cpu3_L1D TRANSLATION  ACCESS:         20 HIT:          0 MISS:         20 MSHR_MERGE:          0
cpu3->cpu3_L1D PREFETCH REQUESTED:          0 ISSUED:          0 USEFUL:          0 USELESS:          0
cpu3->cpu3_L1D AVERAGE MISS LATENCY: 208.2 cycles
cpu3_L1D COHERENCE INVALIDATIONS:          0
cpu3_L1D COHERENCE WRITE-HIT OTHER-SHARER EVENTS:          0
cpu3->cpu3_ITLB TOTAL        ACCESS:   78426278 HIT:   78426247 MISS:         31 MSHR_MERGE:         13
cpu3->cpu3_ITLB LOAD         ACCESS:   78426278 HIT:   78426247 MISS:         31 MSHR_MERGE:         13
cpu3->cpu3_ITLB RFO          ACCESS:          0 HIT:          0 MISS:          0 MSHR_MERGE:          0
cpu3->cpu3_ITLB PREFETCH     ACCESS:          0 HIT:          0 MISS:          0 MSHR_MERGE:          0
cpu3->cpu3_ITLB WRITE        ACCESS:          0 HIT:          0 MISS:          0 MSHR_MERGE:          0
cpu3->cpu3_ITLB TRANSLATION  ACCESS:          0 HIT:          0 MISS:          0 MSHR_MERGE:          0
cpu3->cpu3_ITLB PREFETCH REQUESTED:          0 ISSUED:          0 USEFUL:          0 USELESS:          0
cpu3->cpu3_ITLB AVERAGE MISS LATENCY: 398.1 cycles
cpu3_ITLB COHERENCE INVALIDATIONS:          0
cpu3_ITLB COHERENCE WRITE-HIT OTHER-SHARER EVENTS:          0
cpu3_DTLB COHERENCE INVALIDATIONS:          0
cpu3_DTLB COHERENCE WRITE-HIT OTHER-SHARER EVENTS:          0
cpu2->cpu2_STLB TOTAL        ACCESS:         17 HIT:          7 MISS:         10 MSHR_MERGE:          0
cpu2->cpu2_STLB LOAD         ACCESS:         17 HIT:          7 MISS:         10 MSHR_MERGE:          0
cpu2->cpu2_STLB RFO          ACCESS:          0 HIT:          0 MISS:          0 MSHR_MERGE:          0
cpu2->cpu2_STLB PREFETCH     ACCESS:          0 HIT:          0 MISS:          0 MSHR_MERGE:          0
cpu2->cpu2_STLB WRITE        ACCESS:          0 HIT:          0 MISS:          0 MSHR_MERGE:          0
cpu2->cpu2_STLB TRANSLATION  ACCESS:          0 HIT:          0 MISS:          0 MSHR_MERGE:          0
cpu2->cpu2_STLB PREFETCH REQUESTED:          0 ISSUED:          0 USEFUL:          0 USELESS:          0
cpu2->cpu2_STLB AVERAGE MISS LATENCY: 629.4 cycles
cpu2_STLB COHERENCE INVALIDATIONS:          0
cpu2_STLB COHERENCE WRITE-HIT OTHER-SHARER EVENTS:          0
cpu2->cpu2_L2C TOTAL        ACCESS:         58 HIT:          4 MISS:         54 MSHR_MERGE:          0
cpu2->cpu2_L2C LOAD         ACCESS:         38 HIT:          4 MISS:         34 MSHR_MERGE:          0
cpu2->cpu2_L2C RFO          ACCESS:          0 HIT:          0 MISS:          0 MSHR_MERGE:          0
cpu2->cpu2_L2C PREFETCH     ACCESS:          0 HIT:          0 MISS:          0 MSHR_MERGE:          0
cpu2->cpu2_L2C WRITE        ACCESS:          0 HIT:          0 MISS:          0 MSHR_MERGE:          0
cpu2->cpu2_L2C TRANSLATION  ACCESS:         20 HIT:          0 MISS:         20 MSHR_MERGE:          0
cpu2->cpu2_L2C PREFETCH REQUESTED:          0 ISSUED:          0 USEFUL:          0 USELESS:          0
cpu2->cpu2_L2C AVERAGE MISS LATENCY: 200.1 cycles
cpu2_L2C COHERENCE INVALIDATIONS:          0
cpu2_L2C COHERENCE WRITE-HIT OTHER-SHARER EVENTS:          0
cpu2->cpu2_L1I TOTAL        ACCESS:  102225472 HIT:  102225421 MISS:         51 MSHR_MERGE:         13
cpu2->cpu2_L1I LOAD         ACCESS:  102225472 HIT:  102225421 MISS:         51 MSHR_MERGE:         13
cpu2->cpu2_L1I RFO          ACCESS:          0 HIT:          0 MISS:          0 MSHR_MERGE:          0
cpu2->cpu2_L1I PREFETCH     ACCESS:          0 HIT:          0 MISS:          0 MSHR_MERGE:          0
cpu2->cpu2_L1I WRITE        ACCESS:          0 HIT:          0 MISS:          0 MSHR_MERGE:          0
cpu2->cpu2_L1I TRANSLATION  ACCESS:          0 HIT:          0 MISS:          0 MSHR_MERGE:          0
cpu2->cpu2_L1I PREFETCH REQUESTED:          0 ISSUED:          0 USEFUL:          0 USELESS:          0
cpu2->cpu2_L1I AVERAGE MISS LATENCY: 186.6 cycles
cpu2_L1I COHERENCE INVALIDATIONS:          0
cpu2_L1I COHERENCE WRITE-HIT OTHER-SHARER EVENTS:          0
cpu2->cpu2_L1D TOTAL        ACCESS:         20 HIT:          0 MISS:         20 MSHR_MERGE:          0
cpu2->cpu2_L1D LOAD         ACCESS:          0 HIT:          0 MISS:          0 MSHR_MERGE:          0
cpu2->cpu2_L1D RFO          ACCESS:          0 HIT:          0 MISS:          0 MSHR_MERGE:          0
cpu2->cpu2_L1D PREFETCH     ACCESS:          0 HIT:          0 MISS:          0 MSHR_MERGE:          0
cpu2->cpu2_L1D WRITE        ACCESS:          0 HIT:          0 MISS:          0 MSHR_MERGE:          0
cpu2->cpu2_L1D TRANSLATION  ACCESS:         20 HIT:          0 MISS:         20 MSHR_MERGE:          0
cpu2->cpu2_L1D PREFETCH REQUESTED:          0 ISSUED:          0 USEFUL:          0 USELESS:          0
cpu2->cpu2_L1D AVERAGE MISS LATENCY: 208.7 cycles
cpu2_L1D COHERENCE INVALIDATIONS:          0
cpu2_L1D COHERENCE WRITE-HIT OTHER-SHARER EVENTS:          0
cpu2->cpu2_ITLB TOTAL        ACCESS:   78883579 HIT:   78883550 MISS:         29 MSHR_MERGE:         12
cpu2->cpu2_ITLB LOAD         ACCESS:   78883579 HIT:   78883550 MISS:         29 MSHR_MERGE:         12
cpu2->cpu2_ITLB RFO          ACCESS:          0 HIT:          0 MISS:          0 MSHR_MERGE:          0
cpu2->cpu2_ITLB PREFETCH     ACCESS:          0 HIT:          0 MISS:          0 MSHR_MERGE:          0
cpu2->cpu2_ITLB WRITE        ACCESS:          0 HIT:          0 MISS:          0 MSHR_MERGE:          0
cpu2->cpu2_ITLB TRANSLATION  ACCESS:          0 HIT:          0 MISS:          0 MSHR_MERGE:          0
cpu2->cpu2_ITLB PREFETCH REQUESTED:          0 ISSUED:          0 USEFUL:          0 USELESS:          0
cpu2->cpu2_ITLB AVERAGE MISS LATENCY: 374.8 cycles
cpu2_ITLB COHERENCE INVALIDATIONS:          0
cpu2_ITLB COHERENCE WRITE-HIT OTHER-SHARER EVENTS:          0
cpu2_DTLB COHERENCE INVALIDATIONS:          0
cpu2_DTLB COHERENCE WRITE-HIT OTHER-SHARER EVENTS:          0
cpu1->cpu1_STLB TOTAL        ACCESS:    1141068 HIT:    1140900 MISS:        168 MSHR_MERGE:          0
cpu1->cpu1_STLB LOAD         ACCESS:    1141068 HIT:    1140900 MISS:        168 MSHR_MERGE:          0
cpu1->cpu1_STLB RFO          ACCESS:          0 HIT:          0 MISS:          0 MSHR_MERGE:          0
cpu1->cpu1_STLB PREFETCH     ACCESS:          0 HIT:          0 MISS:          0 MSHR_MERGE:          0
cpu1->cpu1_STLB WRITE        ACCESS:          0 HIT:          0 MISS:          0 MSHR_MERGE:          0
cpu1->cpu1_STLB TRANSLATION  ACCESS:          0 HIT:          0 MISS:          0 MSHR_MERGE:          0
cpu1->cpu1_STLB PREFETCH REQUESTED:          0 ISSUED:          0 USEFUL:          0 USELESS:          0
cpu1->cpu1_STLB AVERAGE MISS LATENCY: 640.4 cycles
cpu1_STLB COHERENCE INVALIDATIONS:          0
cpu1_STLB COHERENCE WRITE-HIT OTHER-SHARER EVENTS:          0
cpu1->cpu1_L2C TOTAL        ACCESS:    3406868 HIT:    3116424 MISS:     290444 MSHR_MERGE:          0
cpu1->cpu1_L2C LOAD         ACCESS:    3406671 HIT:    3116424 MISS:     290247 MSHR_MERGE:          0
cpu1->cpu1_L2C RFO          ACCESS:          0 HIT:          0 MISS:          0 MSHR_MERGE:          0
cpu1->cpu1_L2C PREFETCH     ACCESS:          0 HIT:          0 MISS:          0 MSHR_MERGE:          0
cpu1->cpu1_L2C WRITE        ACCESS:          0 HIT:          0 MISS:          0 MSHR_MERGE:          0
cpu1->cpu1_L2C TRANSLATION  ACCESS:        197 HIT:          0 MISS:        197 MSHR_MERGE:          0
cpu1->cpu1_L2C PREFETCH REQUESTED:          0 ISSUED:          0 USEFUL:          0 USELESS:          0
cpu1->cpu1_L2C AVERAGE MISS LATENCY: 108.3 cycles
cpu1_L2C COHERENCE INVALIDATIONS:          0
cpu1_L2C COHERENCE WRITE-HIT OTHER-SHARER EVENTS:          0
cpu1->cpu1_L1I TOTAL        ACCESS:   64241812 HIT:   60777258 MISS:    3464554 MSHR_MERGE:      57883
cpu1->cpu1_L1I LOAD         ACCESS:   64241812 HIT:   60777258 MISS:    3464554 MSHR_MERGE:      57883
cpu1->cpu1_L1I RFO          ACCESS:          0 HIT:          0 MISS:          0 MSHR_MERGE:          0
cpu1->cpu1_L1I PREFETCH     ACCESS:          0 HIT:          0 MISS:          0 MSHR_MERGE:          0
cpu1->cpu1_L1I WRITE        ACCESS:          0 HIT:          0 MISS:          0 MSHR_MERGE:          0
cpu1->cpu1_L1I TRANSLATION  ACCESS:          0 HIT:          0 MISS:          0 MSHR_MERGE:          0
cpu1->cpu1_L1I PREFETCH REQUESTED:          0 ISSUED:          0 USEFUL:          0 USELESS:          0
cpu1->cpu1_L1I AVERAGE MISS LATENCY: 16.49 cycles
cpu1_L1I COHERENCE INVALIDATIONS:          0
cpu1_L1I COHERENCE WRITE-HIT OTHER-SHARER EVENTS:          0
cpu1->cpu1_L1D TOTAL        ACCESS:        339 HIT:        142 MISS:        197 MSHR_MERGE:          0
cpu1->cpu1_L1D LOAD         ACCESS:          0 HIT:          0 MISS:          0 MSHR_MERGE:          0
cpu1->cpu1_L1D RFO          ACCESS:          0 HIT:          0 MISS:          0 MSHR_MERGE:          0
cpu1->cpu1_L1D PREFETCH     ACCESS:          0 HIT:          0 MISS:          0 MSHR_MERGE:          0
cpu1->cpu1_L1D WRITE        ACCESS:          0 HIT:          0 MISS:          0 MSHR_MERGE:          0
cpu1->cpu1_L1D TRANSLATION  ACCESS:        339 HIT:        142 MISS:        197 MSHR_MERGE:          0
cpu1->cpu1_L1D PREFETCH REQUESTED:          0 ISSUED:          0 USEFUL:          0 USELESS:          0
cpu1->cpu1_L1D AVERAGE MISS LATENCY: 198.5 cycles
cpu1_L1D COHERENCE INVALIDATIONS:          0
cpu1_L1D COHERENCE WRITE-HIT OTHER-SHARER EVENTS:          0
cpu1->cpu1_ITLB TOTAL        ACCESS:   61745205 HIT:   60542854 MISS:    1202351 MSHR_MERGE:      61283
cpu1->cpu1_ITLB LOAD         ACCESS:   61745205 HIT:   60542854 MISS:    1202351 MSHR_MERGE:      61283
cpu1->cpu1_ITLB RFO          ACCESS:          0 HIT:          0 MISS:          0 MSHR_MERGE:          0
cpu1->cpu1_ITLB PREFETCH     ACCESS:          0 HIT:          0 MISS:          0 MSHR_MERGE:          0
cpu1->cpu1_ITLB WRITE        ACCESS:          0 HIT:          0 MISS:          0 MSHR_MERGE:          0
cpu1->cpu1_ITLB TRANSLATION  ACCESS:          0 HIT:          0 MISS:          0 MSHR_MERGE:          0
cpu1->cpu1_ITLB PREFETCH REQUESTED:          0 ISSUED:          0 USEFUL:          0 USELESS:          0
cpu1->cpu1_ITLB AVERAGE MISS LATENCY: 4.094 cycles
cpu1_ITLB COHERENCE INVALIDATIONS:          0
cpu1_ITLB COHERENCE WRITE-HIT OTHER-SHARER EVENTS:          0
cpu1_DTLB COHERENCE INVALIDATIONS:          0
cpu1_DTLB COHERENCE WRITE-HIT OTHER-SHARER EVENTS:          0
cpu0->cpu0_STLB TOTAL        ACCESS:    3020205 HIT:    3007268 MISS:      12937 MSHR_MERGE:          0
cpu0->cpu0_STLB LOAD         ACCESS:    3020205 HIT:    3007268 MISS:      12937 MSHR_MERGE:          0
cpu0->cpu0_STLB RFO          ACCESS:          0 HIT:          0 MISS:          0 MSHR_MERGE:          0
cpu0->cpu0_STLB PREFETCH     ACCESS:          0 HIT:          0 MISS:          0 MSHR_MERGE:          0
cpu0->cpu0_STLB WRITE        ACCESS:          0 HIT:          0 MISS:          0 MSHR_MERGE:          0
cpu0->cpu0_STLB TRANSLATION  ACCESS:          0 HIT:          0 MISS:          0 MSHR_MERGE:          0
cpu0->cpu0_STLB PREFETCH REQUESTED:          0 ISSUED:          0 USEFUL:          0 USELESS:          0
cpu0->cpu0_STLB AVERAGE MISS LATENCY: 258.1 cycles
cpu0_STLB COHERENCE INVALIDATIONS:          0
cpu0_STLB COHERENCE WRITE-HIT OTHER-SHARER EVENTS:          0
cpu0->cpu0_L2C TOTAL        ACCESS:    4709703 HIT:    4298958 MISS:     410745 MSHR_MERGE:          0
cpu0->cpu0_L2C LOAD         ACCESS:    3758984 HIT:    3414174 MISS:     344810 MSHR_MERGE:          0
cpu0->cpu0_L2C RFO          ACCESS:     343441 HIT:     291537 MISS:      51904 MSHR_MERGE:          0
cpu0->cpu0_L2C PREFETCH     ACCESS:          0 HIT:          0 MISS:          0 MSHR_MERGE:          0
cpu0->cpu0_L2C WRITE        ACCESS:     579081 HIT:     578797 MISS:        284 MSHR_MERGE:          0
cpu0->cpu0_L2C TRANSLATION  ACCESS:      28197 HIT:      14450 MISS:      13747 MSHR_MERGE:          0
cpu0->cpu0_L2C PREFETCH REQUESTED:          0 ISSUED:          0 USEFUL:          0 USELESS:          0
cpu0->cpu0_L2C AVERAGE MISS LATENCY: 128 cycles
cpu0_L2C COHERENCE INVALIDATIONS:          0
cpu0_L2C COHERENCE WRITE-HIT OTHER-SHARER EVENTS:          0
cpu0->cpu0_L1I TOTAL        ACCESS:   25263287 HIT:   25263267 MISS:         20 MSHR_MERGE:          7
cpu0->cpu0_L1I LOAD         ACCESS:   25263287 HIT:   25263267 MISS:         20 MSHR_MERGE:          7
cpu0->cpu0_L1I RFO          ACCESS:          0 HIT:          0 MISS:          0 MSHR_MERGE:          0
cpu0->cpu0_L1I PREFETCH     ACCESS:          0 HIT:          0 MISS:          0 MSHR_MERGE:          0
cpu0->cpu0_L1I WRITE        ACCESS:          0 HIT:          0 MISS:          0 MSHR_MERGE:          0
cpu0->cpu0_L1I TRANSLATION  ACCESS:          0 HIT:          0 MISS:          0 MSHR_MERGE:          0
cpu0->cpu0_L1I PREFETCH REQUESTED:          0 ISSUED:          0 USEFUL:          0 USELESS:          0
cpu0->cpu0_L1I AVERAGE MISS LATENCY: 196.9 cycles
cpu0_L1I COHERENCE INVALIDATIONS:          0
cpu0_L1I COHERENCE WRITE-HIT OTHER-SHARER EVENTS:          0
cpu0->cpu0_L1D TOTAL        ACCESS:   63862928 HIT:   59651868 MISS:    4211060 MSHR_MERGE:      79974
cpu0->cpu0_L1D LOAD         ACCESS:   16888909 HIT:   13119587 MISS:    3769322 MSHR_MERGE:      10261
cpu0->cpu0_L1D RFO          ACCESS:          0 HIT:          0 MISS:          0 MSHR_MERGE:          0
cpu0->cpu0_L1D PREFETCH     ACCESS:          0 HIT:          0 MISS:          0 MSHR_MERGE:          0
cpu0->cpu0_L1D WRITE        ACCESS:   46942670 HIT:   46529137 MISS:     413533 MSHR_MERGE:      69705
cpu0->cpu0_L1D TRANSLATION  ACCESS:      31349 HIT:       3144 MISS:      28205 MSHR_MERGE:          8
cpu0->cpu0_L1D PREFETCH REQUESTED:          0 ISSUED:          0 USEFUL:          0 USELESS:          0
cpu0->cpu0_L1D AVERAGE MISS LATENCY: 20.03 cycles
cpu0_L1D COHERENCE INVALIDATIONS:          0
cpu0_L1D COHERENCE WRITE-HIT OTHER-SHARER EVENTS:          0
cpu0->cpu0_ITLB TOTAL        ACCESS:   22765469 HIT:   22765469 MISS:          0 MSHR_MERGE:          0
cpu0->cpu0_ITLB LOAD         ACCESS:   22765469 HIT:   22765469 MISS:          0 MSHR_MERGE:          0
cpu0->cpu0_ITLB RFO          ACCESS:          0 HIT:          0 MISS:          0 MSHR_MERGE:          0
cpu0->cpu0_ITLB PREFETCH     ACCESS:          0 HIT:          0 MISS:          0 MSHR_MERGE:          0
cpu0->cpu0_ITLB WRITE        ACCESS:          0 HIT:          0 MISS:          0 MSHR_MERGE:          0
cpu0->cpu0_ITLB TRANSLATION  ACCESS:          0 HIT:          0 MISS:          0 MSHR_MERGE:          0
cpu0->cpu0_ITLB PREFETCH REQUESTED:          0 ISSUED:          0 USEFUL:          0 USELESS:          0
cpu0->cpu0_ITLB AVERAGE MISS LATENCY: - cycles
cpu0_ITLB COHERENCE INVALIDATIONS:          0
cpu0_ITLB COHERENCE WRITE-HIT OTHER-SHARER EVENTS:          0
cpu0->cpu0_DTLB TOTAL        ACCESS:   62023141 HIT:   58831466 MISS:    3191675 MSHR_MERGE:     171470
cpu0->cpu0_DTLB LOAD         ACCESS:   62023141 HIT:   58831466 MISS:    3191675 MSHR_MERGE:     171470
cpu0->cpu0_DTLB RFO          ACCESS:          0 HIT:          0 MISS:          0 MSHR_MERGE:          0
cpu0->cpu0_DTLB PREFETCH     ACCESS:          0 HIT:          0 MISS:          0 MSHR_MERGE:          0
cpu0->cpu0_DTLB WRITE        ACCESS:          0 HIT:          0 MISS:          0 MSHR_MERGE:          0
cpu0->cpu0_DTLB TRANSLATION  ACCESS:          0 HIT:          0 MISS:          0 MSHR_MERGE:          0
cpu0->cpu0_DTLB PREFETCH REQUESTED:          0 ISSUED:          0 USEFUL:          0 USELESS:          0
cpu0->cpu0_DTLB AVERAGE MISS LATENCY: 5.11 cycles
cpu0_DTLB COHERENCE INVALIDATIONS:          0
cpu0_DTLB COHERENCE WRITE-HIT OTHER-SHARER EVENTS:          0
cpu0->LLC TOTAL        ACCESS:     515188 HIT:     227904 MISS:     287284 MSHR_MERGE:          0
cpu0->LLC LOAD         ACCESS:     344810 HIT:     148231 MISS:     196579 MSHR_MERGE:          0
cpu0->LLC RFO          ACCESS:      51904 HIT:      23647 MISS:      28257 MSHR_MERGE:          0
cpu0->LLC PREFETCH     ACCESS:          0 HIT:          0 MISS:          0 MSHR_MERGE:          0
cpu0->LLC WRITE        ACCESS:     104727 HIT:      54920 MISS:      49807 MSHR_MERGE:          0
cpu0->LLC TRANSLATION  ACCESS:      13747 HIT:       1106 MISS:      12641 MSHR_MERGE:          0
cpu0->LLC PREFETCH REQUESTED:          0 ISSUED:          0 USEFUL:          0 USELESS:          0
cpu0->LLC AVERAGE MISS LATENCY: 256.2 cycles
cpu1->LLC TOTAL        ACCESS:     290444 HIT:     139193 MISS:     151251 MSHR_MERGE:          1
cpu1->LLC LOAD         ACCESS:     290247 HIT:     139193 MISS:     151054 MSHR_MERGE:          1
cpu1->LLC RFO          ACCESS:          0 HIT:          0 MISS:          0 MSHR_MERGE:          0
cpu1->LLC PREFETCH     ACCESS:          0 HIT:          0 MISS:          0 MSHR_MERGE:          0
cpu1->LLC WRITE        ACCESS:          0 HIT:          0 MISS:          0 MSHR_MERGE:          0
cpu1->LLC TRANSLATION  ACCESS:        197 HIT:          0 MISS:        197 MSHR_MERGE:          0
cpu1->LLC PREFETCH REQUESTED:          0 ISSUED:          0 USEFUL:          0 USELESS:          0
cpu1->LLC AVERAGE MISS LATENCY: 486.6 cycles
cpu2->LLC TOTAL        ACCESS:         54 HIT:          0 MISS:         54 MSHR_MERGE:          0
cpu2->LLC LOAD         ACCESS:         34 HIT:          0 MISS:         34 MSHR_MERGE:          0
cpu2->LLC RFO          ACCESS:          0 HIT:          0 MISS:          0 MSHR_MERGE:          0
cpu2->LLC PREFETCH     ACCESS:          0 HIT:          0 MISS:          0 MSHR_MERGE:          0
cpu2->LLC WRITE        ACCESS:          0 HIT:          0 MISS:          0 MSHR_MERGE:          0
cpu2->LLC TRANSLATION  ACCESS:         20 HIT:          0 MISS:         20 MSHR_MERGE:          0
cpu2->LLC PREFETCH REQUESTED:          0 ISSUED:          0 USEFUL:          0 USELESS:          0
cpu2->LLC AVERAGE MISS LATENCY: 1.363e+06 cycles
cpu3->LLC TOTAL        ACCESS:         54 HIT:          0 MISS:         54 MSHR_MERGE:          0
cpu3->LLC LOAD         ACCESS:         34 HIT:          0 MISS:         34 MSHR_MERGE:          0
cpu3->LLC RFO          ACCESS:          0 HIT:          0 MISS:          0 MSHR_MERGE:          0
cpu3->LLC PREFETCH     ACCESS:          0 HIT:          0 MISS:          0 MSHR_MERGE:          0
cpu3->LLC WRITE        ACCESS:          0 HIT:          0 MISS:          0 MSHR_MERGE:          0
cpu3->LLC TRANSLATION  ACCESS:         20 HIT:          0 MISS:         20 MSHR_MERGE:          0
cpu3->LLC PREFETCH REQUESTED:          0 ISSUED:          0 USEFUL:          0 USELESS:          0
cpu3->LLC AVERAGE MISS LATENCY: 1.363e+06 cycles
LLC COHERENCE INVALIDATIONS:      31233
LLC COHERENCE WRITE-HIT OTHER-SHARER EVENTS:      31233

DRAM Statistics

Channel 0 RQ ROW_BUFFER_HIT:       1809
  ROW_BUFFER_MISS:     386955
  AVG DBUS CONGESTED CYCLE: 13.36
Channel 0 WQ ROW_BUFFER_HIT:       9933
  ROW_BUFFER_MISS:      44219
  FULL:          0
Channel 0 REFRESHES ISSUED:      13258

VMEM ALIASED FILLS (cross-CPU shared-page hits): 3511
