[VMEM] WARNING: physical memory size is smaller than virtual memory size.

*** ChampSim Multicore Out-of-Order Simulator ***
Warmup Instructions: 50000000
Simulation Instructions: 100000000
Number of CPUs: 8
Page size: 4096

Off-chip DRAM Size: 16 GiB Channels: 1 Width: 64-bit Data Rate: 3205 MT/s
*** Reached end of trace: (3, "traces/canneal_big4.champsimtrace")
*** Reached end of trace: (1, "traces/canneal_big2.champsimtrace")
*** Reached end of trace: (2, "traces/canneal_big3.champsimtrace")
*** Reached end of trace: (7, "traces/canneal_big3.champsimtrace")
*** Reached end of trace: (6, "traces/canneal_big2.champsimtrace")
*** Reached end of trace: (4, "traces/canneal_big0.champsimtrace")
*** Reached end of trace: (3, "traces/canneal_big4.champsimtrace")
Heartbeat CPU 3 instructions: 10000001 cycles: 2503430 heartbeat IPC: 3.995 cumulative IPC: 3.995 (Simulation time: 00 hr 06 min 52 sec)
*** Reached end of trace: (1, "traces/canneal_big2.champsimtrace")
*** Reached end of trace: (2, "traces/canneal_big3.champsimtrace")
*** Reached end of trace: (7, "traces/canneal_big3.champsimtrace")
Heartbeat CPU 1 instructions: 10000001 cycles: 2503610 heartbeat IPC: 3.994 cumulative IPC: 3.994 (Simulation time: 00 hr 06 min 52 sec)
Heartbeat CPU 2 instructions: 10000001 cycles: 2503649 heartbeat IPC: 3.994 cumulative IPC: 3.994 (Simulation time: 00 hr 06 min 52 sec)
Heartbeat CPU 7 instructions: 10000001 cycles: 2503654 heartbeat IPC: 3.994 cumulative IPC: 3.994 (Simulation time: 00 hr 06 min 52 sec)
*** Reached end of trace: (6, "traces/canneal_big2.champsimtrace")
Heartbeat CPU 6 instructions: 10000001 cycles: 2503811 heartbeat IPC: 3.994 cumulative IPC: 3.994 (Simulation time: 00 hr 06 min 52 sec)
*** Reached end of trace: (3, "traces/canneal_big4.champsimtrace")
*** Reached end of trace: (1, "traces/canneal_big2.champsimtrace")
*** Reached end of trace: (2, "traces/canneal_big3.champsimtrace")
*** Reached end of trace: (7, "traces/canneal_big3.champsimtrace")
*** Reached end of trace: (6, "traces/canneal_big2.champsimtrace")
*** Reached end of trace: (4, "traces/canneal_big0.champsimtrace")
Heartbeat CPU 4 instructions: 10000003 cycles: 4029057 heartbeat IPC: 2.482 cumulative IPC: 2.482 (Simulation time: 00 hr 11 min 17 sec)
*** Reached end of trace: (0, "traces/canneal_big1.champsimtrace")
*** Reached end of trace: (5, "traces/canneal_big1.champsimtrace")
*** Reached end of trace: (3, "traces/canneal_big4.champsimtrace")
Heartbeat CPU 3 instructions: 20000001 cycles: 5003430 heartbeat IPC: 4 cumulative IPC: 3.997 (Simulation time: 00 hr 14 min 12 sec)
*** Reached end of trace: (1, "traces/canneal_big2.champsimtrace")
*** Reached end of trace: (2, "traces/canneal_big3.champsimtrace")
*** Reached end of trace: (7, "traces/canneal_big3.champsimtrace")
Heartbeat CPU 1 instructions: 20000001 cycles: 5003610 heartbeat IPC: 4 cumulative IPC: 3.997 (Simulation time: 00 hr 14 min 12 sec)
Heartbeat CPU 2 instructions: 20000001 cycles: 5003649 heartbeat IPC: 4 cumulative IPC: 3.997 (Simulation time: 00 hr 14 min 12 sec)
Heartbeat CPU 7 instructions: 20000001 cycles: 5003654 heartbeat IPC: 4 cumulative IPC: 3.997 (Simulation time: 00 hr 14 min 12 sec)
*** Reached end of trace: (6, "traces/canneal_big2.champsimtrace")
Heartbeat CPU 6 instructions: 20000001 cycles: 5003811 heartbeat IPC: 4 cumulative IPC: 3.997 (Simulation time: 00 hr 14 min 12 sec)
*** Reached end of trace: (4, "traces/canneal_big0.champsimtrace")
*** Reached end of trace: (3, "traces/canneal_big4.champsimtrace")
*** Reached end of trace: (1, "traces/canneal_big2.champsimtrace")
*** Reached end of trace: (2, "traces/canneal_big3.champsimtrace")
*** Reached end of trace: (7, "traces/canneal_big3.champsimtrace")
*** Reached end of trace: (6, "traces/canneal_big2.champsimtrace")
*** Reached end of trace: (0, "traces/canneal_big1.champsimtrace")
*** Reached end of trace: (5, "traces/canneal_big1.champsimtrace")
Heartbeat CPU 0 instructions: 10000002 cycles: 7295693 heartbeat IPC: 1.371 cumulative IPC: 1.371 (Simulation time: 00 hr 20 min 51 sec)
Heartbeat CPU 5 instructions: 10000002 cycles: 7295716 heartbeat IPC: 1.371 cumulative IPC: 1.371 (Simulation time: 00 hr 20 min 51 sec)
*** Reached end of trace: (3, "traces/canneal_big4.champsimtrace")
Heartbeat CPU 3 instructions: 30000001 cycles: 7503430 heartbeat IPC: 4 cumulative IPC: 3.998 (Simulation time: 00 hr 21 min 26 sec)
*** Reached end of trace: (1, "traces/canneal_big2.champsimtrace")
*** Reached end of trace: (2, "traces/canneal_big3.champsimtrace")
*** Reached end of trace: (7, "traces/canneal_big3.champsimtrace")
Heartbeat CPU 1 instructions: 30000001 cycles: 7503610 heartbeat IPC: 4 cumulative IPC: 3.998 (Simulation time: 00 hr 21 min 26 sec)
Heartbeat CPU 2 instructions: 30000001 cycles: 7503649 heartbeat IPC: 4 cumulative IPC: 3.998 (Simulation time: 00 hr 21 min 26 sec)
Heartbeat CPU 7 instructions: 30000001 cycles: 7503654 heartbeat IPC: 4 cumulative IPC: 3.998 (Simulation time: 00 hr 21 min 26 sec)
*** Reached end of trace: (6, "traces/canneal_big2.champsimtrace")
Heartbeat CPU 6 instructions: 30000001 cycles: 7503811 heartbeat IPC: 4 cumulative IPC: 3.998 (Simulation time: 00 hr 21 min 26 sec)
*** Reached end of trace: (4, "traces/canneal_big0.champsimtrace")
Heartbeat CPU 4 instructions: 20000006 cycles: 7883196 heartbeat IPC: 2.595 cumulative IPC: 2.537 (Simulation time: 00 hr 22 min 32 sec)
*** Reached end of trace: (3, "traces/canneal_big4.champsimtrace")
*** Reached end of trace: (1, "traces/canneal_big2.champsimtrace")
*** Reached end of trace: (2, "traces/canneal_big3.champsimtrace")
*** Reached end of trace: (7, "traces/canneal_big3.champsimtrace")
*** Reached end of trace: (6, "traces/canneal_big2.champsimtrace")
*** Reached end of trace: (4, "traces/canneal_big0.champsimtrace")
*** Reached end of trace: (3, "traces/canneal_big4.champsimtrace")
Heartbeat CPU 3 instructions: 40000001 cycles: 10003430 heartbeat IPC: 4 cumulative IPC: 3.999 (Simulation time: 00 hr 28 min 43 sec)
*** Reached end of trace: (1, "traces/canneal_big2.champsimtrace")
*** Reached end of trace: (2, "traces/canneal_big3.champsimtrace")
*** Reached end of trace: (7, "traces/canneal_big3.champsimtrace")
Heartbeat CPU 1 instructions: 40000001 cycles: 10003610 heartbeat IPC: 4 cumulative IPC: 3.999 (Simulation time: 00 hr 28 min 43 sec)
Heartbeat CPU 2 instructions: 40000001 cycles: 10003649 heartbeat IPC: 4 cumulative IPC: 3.999 (Simulation time: 00 hr 28 min 43 sec)
Heartbeat CPU 7 instructions: 40000001 cycles: 10003654 heartbeat IPC: 4 cumulative IPC: 3.999 (Simulation time: 00 hr 28 min 43 sec)
*** Reached end of trace: (6, "traces/canneal_big2.champsimtrace")
Heartbeat CPU 6 instructions: 40000001 cycles: 10003811 heartbeat IPC: 4 cumulative IPC: 3.998 (Simulation time: 00 hr 28 min 43 sec)
*** Reached end of trace: (0, "traces/canneal_big1.champsimtrace")
*** Reached end of trace: (5, "traces/canneal_big1.champsimtrace")
*** Reached end of trace: (3, "traces/canneal_big4.champsimtrace")
*** Reached end of trace: (1, "traces/canneal_big2.champsimtrace")
*** Reached end of trace: (2, "traces/canneal_big3.champsimtrace")
*** Reached end of trace: (7, "traces/canneal_big3.champsimtrace")
*** Reached end of trace: (6, "traces/canneal_big2.champsimtrace")
*** Reached end of trace: (4, "traces/canneal_big0.champsimtrace")
Heartbeat CPU 4 instructions: 30000009 cycles: 11737257 heartbeat IPC: 2.595 cumulative IPC: 2.556 (Simulation time: 00 hr 33 min 40 sec)
*** Reached end of trace: (3, "traces/canneal_big4.champsimtrace")
Heartbeat CPU 3 instructions: 50000001 cycles: 12503430 heartbeat IPC: 4 cumulative IPC: 3.999 (Simulation time: 00 hr 35 min 56 sec)
Warmup finished CPU 3 instructions: 50000001 cycles: 12503430 cumulative IPC: 3.999 (Simulation time: 00 hr 35 min 56 sec)
*** Reached end of trace: (1, "traces/canneal_big2.champsimtrace")
*** Reached end of trace: (2, "traces/canneal_big3.champsimtrace")
*** Reached end of trace: (7, "traces/canneal_big3.champsimtrace")
Heartbeat CPU 1 instructions: 50000001 cycles: 12503610 heartbeat IPC: 4 cumulative IPC: 3.999 (Simulation time: 00 hr 35 min 56 sec)
Warmup finished CPU 1 instructions: 50000001 cycles: 12503610 cumulative IPC: 3.999 (Simulation time: 00 hr 35 min 56 sec)
Heartbeat CPU 2 instructions: 50000001 cycles: 12503649 heartbeat IPC: 4 cumulative IPC: 3.999 (Simulation time: 00 hr 35 min 56 sec)
Warmup finished CPU 2 instructions: 50000001 cycles: 12503649 cumulative IPC: 3.999 (Simulation time: 00 hr 35 min 56 sec)
Heartbeat CPU 7 instructions: 50000001 cycles: 12503654 heartbeat IPC: 4 cumulative IPC: 3.999 (Simulation time: 00 hr 35 min 56 sec)
Warmup finished CPU 7 instructions: 50000001 cycles: 12503654 cumulative IPC: 3.999 (Simulation time: 00 hr 35 min 56 sec)
*** Reached end of trace: (6, "traces/canneal_big2.champsimtrace")
Heartbeat CPU 6 instructions: 50000001 cycles: 12503811 heartbeat IPC: 4 cumulative IPC: 3.999 (Simulation time: 00 hr 35 min 56 sec)
Warmup finished CPU 6 instructions: 50000001 cycles: 12503811 cumulative IPC: 3.999 (Simulation time: 00 hr 35 min 56 sec)
*** Reached end of trace: (0, "traces/canneal_big1.champsimtrace")
*** Reached end of trace: (5, "traces/canneal_big1.champsimtrace")
Heartbeat CPU 0 instructions: 20000004 cycles: 12983047 heartbeat IPC: 1.758 cumulative IPC: 1.54 (Simulation time: 00 hr 37 min 19 sec)
Heartbeat CPU 5 instructions: 20000004 cycles: 12983072 heartbeat IPC: 1.758 cumulative IPC: 1.54 (Simulation time: 00 hr 37 min 19 sec)
*** Reached end of trace: (4, "traces/canneal_big0.champsimtrace")
*** Reached end of trace: (3, "traces/canneal_big4.champsimtrace")
*** Reached end of trace: (1, "traces/canneal_big2.champsimtrace")
*** Reached end of trace: (2, "traces/canneal_big3.champsimtrace")
*** Reached end of trace: (7, "traces/canneal_big3.champsimtrace")
*** Reached end of trace: (6, "traces/canneal_big2.champsimtrace")
*** Reached end of trace: (3, "traces/canneal_big4.champsimtrace")
Heartbeat CPU 3 instructions: 60000001 cycles: 15003430 heartbeat IPC: 4 cumulative IPC: 3.999 (Simulation time: 00 hr 43 min 15 sec)
*** Reached end of trace: (1, "traces/canneal_big2.champsimtrace")
*** Reached end of trace: (2, "traces/canneal_big3.champsimtrace")
*** Reached end of trace: (7, "traces/canneal_big3.champsimtrace")
Heartbeat CPU 1 instructions: 60000001 cycles: 15003610 heartbeat IPC: 4 cumulative IPC: 3.999 (Simulation time: 00 hr 43 min 15 sec)
Heartbeat CPU 2 instructions: 60000001 cycles: 15003649 heartbeat IPC: 4 cumulative IPC: 3.999 (Simulation time: 00 hr 43 min 15 sec)
Heartbeat CPU 7 instructions: 60000001 cycles: 15003654 heartbeat IPC: 4 cumulative IPC: 3.999 (Simulation time: 00 hr 43 min 15 sec)
*** Reached end of trace: (6, "traces/canneal_big2.champsimtrace")
Heartbeat CPU 6 instructions: 60000001 cycles: 15003811 heartbeat IPC: 4 cumulative IPC: 3.999 (Simulation time: 00 hr 43 min 15 sec)
*** Reached end of trace: (4, "traces/canneal_big0.champsimtrace")
Heartbeat CPU 4 instructions: 40000012 cycles: 15591318 heartbeat IPC: 2.595 cumulative IPC: 2.566 (Simulation time: 00 hr 44 min 59 sec)
*** Reached end of trace: (0, "traces/canneal_big1.champsimtrace")
*** Reached end of trace: (5, "traces/canneal_big1.champsimtrace")
*** Reached end of trace: (3, "traces/canneal_big4.champsimtrace")
*** Reached end of trace: (1, "traces/canneal_big2.champsimtrace")
*** Reached end of trace: (2, "traces/canneal_big3.champsimtrace")
*** Reached end of trace: (7, "traces/canneal_big3.champsimtrace")
*** Reached end of trace: (6, "traces/canneal_big2.champsimtrace")
*** Reached end of trace: (3, "traces/canneal_big4.champsimtrace")
Heartbeat CPU 3 instructions: 70000001 cycles: 17503430 heartbeat IPC: 4 cumulative IPC: 3.999 (Simulation time: 00 hr 50 min 32 sec)
*** Reached end of trace: (1, "traces/canneal_big2.champsimtrace")
*** Reached end of trace: (2, "traces/canneal_big3.champsimtrace")
*** Reached end of trace: (7, "traces/canneal_big3.champsimtrace")
Heartbeat CPU 1 instructions: 70000001 cycles: 17503610 heartbeat IPC: 4 cumulative IPC: 3.999 (Simulation time: 00 hr 50 min 32 sec)
Heartbeat CPU 2 instructions: 70000001 cycles: 17503649 heartbeat IPC: 4 cumulative IPC: 3.999 (Simulation time: 00 hr 50 min 32 sec)
Heartbeat CPU 7 instructions: 70000001 cycles: 17503654 heartbeat IPC: 4 cumulative IPC: 3.999 (Simulation time: 00 hr 50 min 32 sec)
*** Reached end of trace: (6, "traces/canneal_big2.champsimtrace")
Heartbeat CPU 6 instructions: 70000001 cycles: 17503811 heartbeat IPC: 4 cumulative IPC: 3.999 (Simulation time: 00 hr 50 min 32 sec)
*** Reached end of trace: (4, "traces/canneal_big0.champsimtrace")
*** Reached end of trace: (0, "traces/canneal_big1.champsimtrace")
*** Reached end of trace: (5, "traces/canneal_big1.champsimtrace")
Heartbeat CPU 0 instructions: 30000004 cycles: 18670358 heartbeat IPC: 1.758 cumulative IPC: 1.607 (Simulation time: 00 hr 53 min 55 sec)
Heartbeat CPU 5 instructions: 30000004 cycles: 18670383 heartbeat IPC: 1.758 cumulative IPC: 1.607 (Simulation time: 00 hr 53 min 55 sec)
*** Reached end of trace: (3, "traces/canneal_big4.champsimtrace")
*** Reached end of trace: (1, "traces/canneal_big2.champsimtrace")
*** Reached end of trace: (2, "traces/canneal_big3.champsimtrace")
*** Reached end of trace: (7, "traces/canneal_big3.champsimtrace")
*** Reached end of trace: (6, "traces/canneal_big2.champsimtrace")
*** Reached end of trace: (4, "traces/canneal_big0.champsimtrace")
Warmup finished CPU 4 instructions: 50000000 cycles: 19445376 cumulative IPC: 2.571 (Simulation time: 00 hr 56 min 09 sec)
Heartbeat CPU 4 instructions: 50000015 cycles: 19445379 heartbeat IPC: 2.595 cumulative IPC: 2.571 (Simulation time: 00 hr 56 min 09 sec)
*** Reached end of trace: (3, "traces/canneal_big4.champsimtrace")
Heartbeat CPU 3 instructions: 80000001 cycles: 20003430 heartbeat IPC: 4 cumulative IPC: 3.999 (Simulation time: 00 hr 57 min 47 sec)
*** Reached end of trace: (1, "traces/canneal_big2.champsimtrace")
*** Reached end of trace: (2, "traces/canneal_big3.champsimtrace")
*** Reached end of trace: (7, "traces/canneal_big3.champsimtrace")
Heartbeat CPU 1 instructions: 80000001 cycles: 20003610 heartbeat IPC: 4 cumulative IPC: 3.999 (Simulation time: 00 hr 57 min 47 sec)
Heartbeat CPU 2 instructions: 80000001 cycles: 20003649 heartbeat IPC: 4 cumulative IPC: 3.999 (Simulation time: 00 hr 57 min 47 sec)
Heartbeat CPU 7 instructions: 80000001 cycles: 20003654 heartbeat IPC: 4 cumulative IPC: 3.999 (Simulation time: 00 hr 57 min 47 sec)
*** Reached end of trace: (6, "traces/canneal_big2.champsimtrace")
Heartbeat CPU 6 instructions: 80000001 cycles: 20003811 heartbeat IPC: 4 cumulative IPC: 3.999 (Simulation time: 00 hr 57 min 47 sec)
*** Reached end of trace: (3, "traces/canneal_big4.champsimtrace")
*** Reached end of trace: (1, "traces/canneal_big2.champsimtrace")
*** Reached end of trace: (2, "traces/canneal_big3.champsimtrace")
*** Reached end of trace: (7, "traces/canneal_big3.champsimtrace")
*** Reached end of trace: (6, "traces/canneal_big2.champsimtrace")
*** Reached end of trace: (4, "traces/canneal_big0.champsimtrace")
*** Reached end of trace: (0, "traces/canneal_big1.champsimtrace")
*** Reached end of trace: (5, "traces/canneal_big1.champsimtrace")
*** Reached end of trace: (3, "traces/canneal_big4.champsimtrace")
Heartbeat CPU 3 instructions: 90000001 cycles: 22503430 heartbeat IPC: 4 cumulative IPC: 3.999 (Simulation time: 01 hr 04 min 58 sec)
*** Reached end of trace: (1, "traces/canneal_big2.champsimtrace")
*** Reached end of trace: (2, "traces/canneal_big3.champsimtrace")
*** Reached end of trace: (7, "traces/canneal_big3.champsimtrace")
Heartbeat CPU 1 instructions: 90000001 cycles: 22503610 heartbeat IPC: 4 cumulative IPC: 3.999 (Simulation time: 01 hr 04 min 58 sec)
Heartbeat CPU 2 instructions: 90000001 cycles: 22503649 heartbeat IPC: 4 cumulative IPC: 3.999 (Simulation time: 01 hr 04 min 58 sec)
Heartbeat CPU 7 instructions: 90000001 cycles: 22503654 heartbeat IPC: 4 cumulative IPC: 3.999 (Simulation time: 01 hr 04 min 58 sec)
*** Reached end of trace: (6, "traces/canneal_big2.champsimtrace")
Heartbeat CPU 6 instructions: 90000001 cycles: 22503811 heartbeat IPC: 4 cumulative IPC: 3.999 (Simulation time: 01 hr 04 min 58 sec)
*** Reached end of trace: (4, "traces/canneal_big0.champsimtrace")
Heartbeat CPU 4 instructions: 60000018 cycles: 23299440 heartbeat IPC: 2.595 cumulative IPC: 2.575 (Simulation time: 01 hr 07 min 11 sec)
*** Reached end of trace: (3, "traces/canneal_big4.champsimtrace")
*** Reached end of trace: (1, "traces/canneal_big2.champsimtrace")
*** Reached end of trace: (2, "traces/canneal_big3.champsimtrace")
*** Reached end of trace: (7, "traces/canneal_big3.champsimtrace")
*** Reached end of trace: (6, "traces/canneal_big2.champsimtrace")
*** Reached end of trace: (0, "traces/canneal_big1.champsimtrace")
*** Reached end of trace: (5, "traces/canneal_big1.champsimtrace")
Heartbeat CPU 0 instructions: 40000006 cycles: 24357625 heartbeat IPC: 1.758 cumulative IPC: 1.642 (Simulation time: 01 hr 10 min 12 sec)
Heartbeat CPU 5 instructions: 40000006 cycles: 24357648 heartbeat IPC: 1.758 cumulative IPC: 1.642 (Simulation time: 01 hr 10 min 12 sec)
*** Reached end of trace: (3, "traces/canneal_big4.champsimtrace")
Heartbeat CPU 3 instructions: 100000001 cycles: 25003430 heartbeat IPC: 4 cumulative IPC: 3.999 (Simulation time: 01 hr 12 min 01 sec)
*** Reached end of trace: (1, "traces/canneal_big2.champsimtrace")
*** Reached end of trace: (2, "traces/canneal_big3.champsimtrace")
*** Reached end of trace: (7, "traces/canneal_big3.champsimtrace")
Heartbeat CPU 1 instructions: 100000001 cycles: 25003610 heartbeat IPC: 4 cumulative IPC: 3.999 (Simulation time: 01 hr 12 min 01 sec)
Heartbeat CPU 2 instructions: 100000001 cycles: 25003649 heartbeat IPC: 4 cumulative IPC: 3.999 (Simulation time: 01 hr 12 min 01 sec)
Heartbeat CPU 7 instructions: 100000001 cycles: 25003654 heartbeat IPC: 4 cumulative IPC: 3.999 (Simulation time: 01 hr 12 min 01 sec)
*** Reached end of trace: (6, "traces/canneal_big2.champsimtrace")
Heartbeat CPU 6 instructions: 100000001 cycles: 25003811 heartbeat IPC: 4 cumulative IPC: 3.999 (Simulation time: 01 hr 12 min 01 sec)
*** Reached end of trace: (4, "traces/canneal_big0.champsimtrace")
*** Reached end of trace: (3, "traces/canneal_big4.champsimtrace")
*** Reached end of trace: (1, "traces/canneal_big2.champsimtrace")
*** Reached end of trace: (2, "traces/canneal_big3.champsimtrace")
*** Reached end of trace: (7, "traces/canneal_big3.champsimtrace")
*** Reached end of trace: (6, "traces/canneal_big2.champsimtrace")
*** Reached end of trace: (4, "traces/canneal_big0.champsimtrace")
Heartbeat CPU 4 instructions: 70000021 cycles: 27153501 heartbeat IPC: 2.595 cumulative IPC: 2.578 (Simulation time: 01 hr 18 min 07 sec)
*** Reached end of trace: (0, "traces/canneal_big1.champsimtrace")
*** Reached end of trace: (5, "traces/canneal_big1.champsimtrace")
*** Reached end of trace: (3, "traces/canneal_big4.champsimtrace")
Heartbeat CPU 3 instructions: 110000001 cycles: 27503430 heartbeat IPC: 4 cumulative IPC: 4 (Simulation time: 01 hr 19 min 09 sec)
*** Reached end of trace: (1, "traces/canneal_big2.champsimtrace")
*** Reached end of trace: (2, "traces/canneal_big3.champsimtrace")
*** Reached end of trace: (7, "traces/canneal_big3.champsimtrace")
Heartbeat CPU 1 instructions: 110000001 cycles: 27503610 heartbeat IPC: 4 cumulative IPC: 3.999 (Simulation time: 01 hr 19 min 09 sec)
Heartbeat CPU 2 instructions: 110000001 cycles: 27503649 heartbeat IPC: 4 cumulative IPC: 3.999 (Simulation time: 01 hr 19 min 09 sec)
Heartbeat CPU 7 instructions: 110000001 cycles: 27503654 heartbeat IPC: 4 cumulative IPC: 3.999 (Simulation time: 01 hr 19 min 09 sec)
*** Reached end of trace: (6, "traces/canneal_big2.champsimtrace")
Heartbeat CPU 6 instructions: 110000001 cycles: 27503811 heartbeat IPC: 4 cumulative IPC: 3.999 (Simulation time: 01 hr 19 min 09 sec)
*** Reached end of trace: (3, "traces/canneal_big4.champsimtrace")
*** Reached end of trace: (1, "traces/canneal_big2.champsimtrace")
*** Reached end of trace: (2, "traces/canneal_big3.champsimtrace")
*** Reached end of trace: (7, "traces/canneal_big3.champsimtrace")
*** Reached end of trace: (6, "traces/canneal_big2.champsimtrace")
*** Reached end of trace: (4, "traces/canneal_big0.champsimtrace")
*** Reached end of trace: (3, "traces/canneal_big4.champsimtrace")
Heartbeat CPU 3 instructions: 120000001 cycles: 30003430 heartbeat IPC: 4 cumulative IPC: 4 (Simulation time: 01 hr 26 min 15 sec)
*** Reached end of trace: (1, "traces/canneal_big2.champsimtrace")
*** Reached end of trace: (2, "traces/canneal_big3.champsimtrace")
*** Reached end of trace: (7, "traces/canneal_big3.champsimtrace")
Heartbeat CPU 1 instructions: 120000001 cycles: 30003610 heartbeat IPC: 4 cumulative IPC: 4 (Simulation time: 01 hr 26 min 15 sec)
Heartbeat CPU 2 instructions: 120000001 cycles: 30003649 heartbeat IPC: 4 cumulative IPC: 4 (Simulation time: 01 hr 26 min 15 sec)
Heartbeat CPU 7 instructions: 120000001 cycles: 30003654 heartbeat IPC: 4 cumulative IPC: 4 (Simulation time: 01 hr 26 min 15 sec)
*** Reached end of trace: (6, "traces/canneal_big2.champsimtrace")
Heartbeat CPU 6 instructions: 120000001 cycles: 30003811 heartbeat IPC: 4 cumulative IPC: 3.999 (Simulation time: 01 hr 26 min 15 sec)
*** Reached end of trace: (0, "traces/canneal_big1.champsimtrace")
*** Reached end of trace: (5, "traces/canneal_big1.champsimtrace")
Warmup finished CPU 0 instructions: 50000000 cycles: 30044793 cumulative IPC: 1.664 (Simulation time: 01 hr 26 min 22 sec)
Heartbeat CPU 0 instructions: 50000008 cycles: 30044816 heartbeat IPC: 1.758 cumulative IPC: 1.664 (Simulation time: 01 hr 26 min 22 sec)
Warmup finished CPU 5 instructions: 50000000 cycles: 30044822 cumulative IPC: 1.664 (Simulation time: 01 hr 26 min 22 sec)
Warmup complete CPU 7 instructions: 120164673 cycles: 30044822 cumulative IPC: 4 (Simulation time: 01 hr 26 min 22 sec)
Warmup complete CPU 6 instructions: 120164045 cycles: 30044822 cumulative IPC: 3.999 (Simulation time: 01 hr 26 min 22 sec)
Warmup complete CPU 5 instructions: 50000000 cycles: 30044822 cumulative IPC: 1.664 (Simulation time: 01 hr 26 min 22 sec)
Warmup complete CPU 4 instructions: 77678929 cycles: 30044822 cumulative IPC: 2.585 (Simulation time: 01 hr 26 min 22 sec)
Warmup complete CPU 3 instructions: 120165569 cycles: 30044822 cumulative IPC: 4 (Simulation time: 01 hr 26 min 22 sec)
Warmup complete CPU 2 instructions: 120164693 cycles: 30044822 cumulative IPC: 4 (Simulation time: 01 hr 26 min 22 sec)
Warmup complete CPU 1 instructions: 120164849 cycles: 30044822 cumulative IPC: 4 (Simulation time: 01 hr 26 min 22 sec)
Warmup complete CPU 0 instructions: 50000027 cycles: 30044822 cumulative IPC: 1.664 (Simulation time: 01 hr 26 min 22 sec)
Heartbeat CPU 5 instructions: 50000008 cycles: 30045036 heartbeat IPC: 1.758 cumulative IPC: 0.03738 (Simulation time: 01 hr 26 min 22 sec)
*** Reached end of trace: (4, "traces/canneal_big0.champsimtrace")
Heartbeat CPU 4 instructions: 80000021 cycles: 30916969 heartbeat IPC: 2.657 cumulative IPC: 2.661 (Simulation time: 01 hr 28 min 47 sec)
*** Reached end of trace: (3, "traces/canneal_big4.champsimtrace")
*** Reached end of trace: (1, "traces/canneal_big2.champsimtrace")
*** Reached end of trace: (2, "traces/canneal_big3.champsimtrace")
*** Reached end of trace: (7, "traces/canneal_big3.champsimtrace")
*** Reached end of trace: (6, "traces/canneal_big2.champsimtrace")
*** Reached end of trace: (3, "traces/canneal_big4.champsimtrace")
Heartbeat CPU 3 instructions: 130000001 cycles: 32503430 heartbeat IPC: 4 cumulative IPC: 4 (Simulation time: 01 hr 33 min 09 sec)
*** Reached end of trace: (1, "traces/canneal_big2.champsimtrace")
*** Reached end of trace: (2, "traces/canneal_big3.champsimtrace")
*** Reached end of trace: (7, "traces/canneal_big3.champsimtrace")
Heartbeat CPU 1 instructions: 130000001 cycles: 32503610 heartbeat IPC: 4 cumulative IPC: 4 (Simulation time: 01 hr 33 min 09 sec)
Heartbeat CPU 2 instructions: 130000001 cycles: 32503649 heartbeat IPC: 4 cumulative IPC: 4 (Simulation time: 01 hr 33 min 09 sec)
Heartbeat CPU 7 instructions: 130000001 cycles: 32503654 heartbeat IPC: 4 cumulative IPC: 4 (Simulation time: 01 hr 33 min 09 sec)
*** Reached end of trace: (6, "traces/canneal_big2.champsimtrace")
Heartbeat CPU 6 instructions: 130000001 cycles: 32503811 heartbeat IPC: 4 cumulative IPC: 4 (Simulation time: 01 hr 33 min 09 sec)
*** Reached end of trace: (4, "traces/canneal_big0.champsimtrace")
*** Reached end of trace: (3, "traces/canneal_big4.champsimtrace")
*** Reached end of trace: (1, "traces/canneal_big2.champsimtrace")
*** Reached end of trace: (2, "traces/canneal_big3.champsimtrace")
*** Reached end of trace: (7, "traces/canneal_big3.champsimtrace")
*** Reached end of trace: (6, "traces/canneal_big2.champsimtrace")
*** Reached end of trace: (3, "traces/canneal_big4.champsimtrace")
Heartbeat CPU 3 instructions: 140000001 cycles: 35003430 heartbeat IPC: 4 cumulative IPC: 4 (Simulation time: 01 hr 39 min 53 sec)
*** Reached end of trace: (1, "traces/canneal_big2.champsimtrace")
*** Reached end of trace: (2, "traces/canneal_big3.champsimtrace")
*** Reached end of trace: (7, "traces/canneal_big3.champsimtrace")
Heartbeat CPU 1 instructions: 140000001 cycles: 35003610 heartbeat IPC: 4 cumulative IPC: 4 (Simulation time: 01 hr 39 min 53 sec)
Heartbeat CPU 2 instructions: 140000001 cycles: 35003649 heartbeat IPC: 4 cumulative IPC: 4 (Simulation time: 01 hr 39 min 53 sec)
Heartbeat CPU 7 instructions: 140000001 cycles: 35003654 heartbeat IPC: 4 cumulative IPC: 4 (Simulation time: 01 hr 39 min 53 sec)
*** Reached end of trace: (6, "traces/canneal_big2.champsimtrace")
Heartbeat CPU 6 instructions: 140000001 cycles: 35003811 heartbeat IPC: 4 cumulative IPC: 4 (Simulation time: 01 hr 39 min 53 sec)
*** Reached end of trace: (4, "traces/canneal_big0.champsimtrace")
Heartbeat CPU 4 instructions: 90000024 cycles: 35355953 heartbeat IPC: 2.253 cumulative IPC: 2.32 (Simulation time: 01 hr 40 min 49 sec)
*** Reached end of trace: (3, "traces/canneal_big4.champsimtrace")
*** Reached end of trace: (1, "traces/canneal_big2.champsimtrace")
*** Reached end of trace: (2, "traces/canneal_big3.champsimtrace")
*** Reached end of trace: (7, "traces/canneal_big3.champsimtrace")
*** Reached end of trace: (6, "traces/canneal_big2.champsimtrace")
*** Reached end of trace: (3, "traces/canneal_big4.champsimtrace")
Heartbeat CPU 3 instructions: 150000001 cycles: 37503430 heartbeat IPC: 4 cumulative IPC: 4 (Simulation time: 01 hr 45 min 41 sec)
*** Reached end of trace: (1, "traces/canneal_big2.champsimtrace")
*** Reached end of trace: (2, "traces/canneal_big3.champsimtrace")
*** Reached end of trace: (7, "traces/canneal_big3.champsimtrace")
Heartbeat CPU 1 instructions: 150000001 cycles: 37503610 heartbeat IPC: 4 cumulative IPC: 4 (Simulation time: 01 hr 45 min 41 sec)
Heartbeat CPU 2 instructions: 150000001 cycles: 37503649 heartbeat IPC: 4 cumulative IPC: 4 (Simulation time: 01 hr 45 min 41 sec)
Heartbeat CPU 7 instructions: 150000001 cycles: 37503654 heartbeat IPC: 4 cumulative IPC: 4 (Simulation time: 01 hr 45 min 41 sec)
*** Reached end of trace: (6, "traces/canneal_big2.champsimtrace")
Heartbeat CPU 6 instructions: 150000001 cycles: 37503811 heartbeat IPC: 4 cumulative IPC: 4 (Simulation time: 01 hr 45 min 41 sec)
*** Reached end of trace: (4, "traces/canneal_big0.champsimtrace")
*** Reached end of trace: (3, "traces/canneal_big4.champsimtrace")
*** Reached end of trace: (1, "traces/canneal_big2.champsimtrace")
*** Reached end of trace: (2, "traces/canneal_big3.champsimtrace")
*** Reached end of trace: (7, "traces/canneal_big3.champsimtrace")
*** Reached end of trace: (6, "traces/canneal_big2.champsimtrace")
*** Reached end of trace: (4, "traces/canneal_big0.champsimtrace")
Heartbeat CPU 4 instructions: 100000027 cycles: 39773389 heartbeat IPC: 2.264 cumulative IPC: 2.294 (Simulation time: 01 hr 50 min 36 sec)
*** Reached end of trace: (3, "traces/canneal_big4.champsimtrace")
Heartbeat CPU 3 instructions: 160000001 cycles: 40003430 heartbeat IPC: 4 cumulative IPC: 4 (Simulation time: 01 hr 51 min 06 sec)
*** Reached end of trace: (1, "traces/canneal_big2.champsimtrace")
*** Reached end of trace: (2, "traces/canneal_big3.champsimtrace")
*** Reached end of trace: (7, "traces/canneal_big3.champsimtrace")
Heartbeat CPU 1 instructions: 160000001 cycles: 40003610 heartbeat IPC: 4 cumulative IPC: 4 (Simulation time: 01 hr 51 min 06 sec)
Heartbeat CPU 2 instructions: 160000001 cycles: 40003649 heartbeat IPC: 4 cumulative IPC: 4 (Simulation time: 01 hr 51 min 06 sec)
Heartbeat CPU 7 instructions: 160000001 cycles: 40003654 heartbeat IPC: 4 cumulative IPC: 4 (Simulation time: 01 hr 51 min 06 sec)
*** Reached end of trace: (6, "traces/canneal_big2.champsimtrace")
Heartbeat CPU 6 instructions: 160000001 cycles: 40003811 heartbeat IPC: 4 cumulative IPC: 4 (Simulation time: 01 hr 51 min 06 sec)
*** Reached end of trace: (3, "traces/canneal_big4.champsimtrace")
*** Reached end of trace: (1, "traces/canneal_big2.champsimtrace")
*** Reached end of trace: (2, "traces/canneal_big3.champsimtrace")
*** Reached end of trace: (7, "traces/canneal_big3.champsimtrace")
*** Reached end of trace: (6, "traces/canneal_big2.champsimtrace")
*** Reached end of trace: (4, "traces/canneal_big0.champsimtrace")
*** Reached end of trace: (3, "traces/canneal_big4.champsimtrace")
Heartbeat CPU 3 instructions: 170000001 cycles: 42503430 heartbeat IPC: 4 cumulative IPC: 4 (Simulation time: 01 hr 56 min 41 sec)
*** Reached end of trace: (1, "traces/canneal_big2.champsimtrace")
*** Reached end of trace: (2, "traces/canneal_big3.champsimtrace")
*** Reached end of trace: (7, "traces/canneal_big3.champsimtrace")
Heartbeat CPU 1 instructions: 170000001 cycles: 42503610 heartbeat IPC: 4 cumulative IPC: 4 (Simulation time: 01 hr 56 min 41 sec)
Heartbeat CPU 2 instructions: 170000001 cycles: 42503649 heartbeat IPC: 4 cumulative IPC: 4 (Simulation time: 01 hr 56 min 41 sec)
Heartbeat CPU 7 instructions: 170000001 cycles: 42503654 heartbeat IPC: 4 cumulative IPC: 4 (Simulation time: 01 hr 56 min 41 sec)
*** Reached end of trace: (6, "traces/canneal_big2.champsimtrace")
Heartbeat CPU 6 instructions: 170000001 cycles: 42503811 heartbeat IPC: 4 cumulative IPC: 4 (Simulation time: 01 hr 56 min 41 sec)
*** Reached end of trace: (0, "traces/canneal_big1.champsimtrace")
*** Reached end of trace: (5, "traces/canneal_big1.champsimtrace")
*** Reached end of trace: (3, "traces/canneal_big4.champsimtrace")
*** Reached end of trace: (1, "traces/canneal_big2.champsimtrace")
*** Reached end of trace: (2, "traces/canneal_big3.champsimtrace")
*** Reached end of trace: (7, "traces/canneal_big3.champsimtrace")
*** Reached end of trace: (6, "traces/canneal_big2.champsimtrace")
*** Reached end of trace: (4, "traces/canneal_big0.champsimtrace")
Heartbeat CPU 4 instructions: 110000028 cycles: 44190891 heartbeat IPC: 2.264 cumulative IPC: 2.285 (Simulation time: 02 hr 00 min 41 sec)
*** Reached end of trace: (3, "traces/canneal_big4.champsimtrace")
Heartbeat CPU 3 instructions: 180000001 cycles: 45003430 heartbeat IPC: 4 cumulative IPC: 4 (Simulation time: 02 hr 02 min 32 sec)
*** Reached end of trace: (1, "traces/canneal_big2.champsimtrace")
*** Reached end of trace: (2, "traces/canneal_big3.champsimtrace")
*** Reached end of trace: (7, "traces/canneal_big3.champsimtrace")
Heartbeat CPU 1 instructions: 180000001 cycles: 45003610 heartbeat IPC: 4 cumulative IPC: 4 (Simulation time: 02 hr 02 min 32 sec)
Heartbeat CPU 2 instructions: 180000001 cycles: 45003649 heartbeat IPC: 4 cumulative IPC: 4 (Simulation time: 02 hr 02 min 32 sec)
Heartbeat CPU 7 instructions: 180000001 cycles: 45003654 heartbeat IPC: 4 cumulative IPC: 4 (Simulation time: 02 hr 02 min 32 sec)
*** Reached end of trace: (6, "traces/canneal_big2.champsimtrace")
Heartbeat CPU 6 instructions: 180000001 cycles: 45003811 heartbeat IPC: 4 cumulative IPC: 4 (Simulation time: 02 hr 02 min 32 sec)
*** Reached end of trace: (3, "traces/canneal_big4.champsimtrace")
*** Reached end of trace: (1, "traces/canneal_big2.champsimtrace")
*** Reached end of trace: (2, "traces/canneal_big3.champsimtrace")
*** Reached end of trace: (7, "traces/canneal_big3.champsimtrace")
*** Reached end of trace: (6, "traces/canneal_big2.champsimtrace")
*** Reached end of trace: (4, "traces/canneal_big0.champsimtrace")
*** Reached end of trace: (3, "traces/canneal_big4.champsimtrace")
Heartbeat CPU 3 instructions: 190000001 cycles: 47503430 heartbeat IPC: 4 cumulative IPC: 4 (Simulation time: 02 hr 08 min 23 sec)
*** Reached end of trace: (1, "traces/canneal_big2.champsimtrace")
*** Reached end of trace: (2, "traces/canneal_big3.champsimtrace")
*** Reached end of trace: (7, "traces/canneal_big3.champsimtrace")
Heartbeat CPU 1 instructions: 190000001 cycles: 47503610 heartbeat IPC: 4 cumulative IPC: 4 (Simulation time: 02 hr 08 min 23 sec)
Heartbeat CPU 2 instructions: 190000001 cycles: 47503649 heartbeat IPC: 4 cumulative IPC: 4 (Simulation time: 02 hr 08 min 23 sec)
Heartbeat CPU 7 instructions: 190000001 cycles: 47503654 heartbeat IPC: 4 cumulative IPC: 4 (Simulation time: 02 hr 08 min 23 sec)
*** Reached end of trace: (6, "traces/canneal_big2.champsimtrace")
Heartbeat CPU 6 instructions: 190000001 cycles: 47503811 heartbeat IPC: 4 cumulative IPC: 4 (Simulation time: 02 hr 08 min 23 sec)
*** Reached end of trace: (4, "traces/canneal_big0.champsimtrace")
Heartbeat CPU 4 instructions: 120000031 cycles: 48626712 heartbeat IPC: 2.254 cumulative IPC: 2.278 (Simulation time: 02 hr 11 min 00 sec)
*** Reached end of trace: (3, "traces/canneal_big4.champsimtrace")
*** Reached end of trace: (1, "traces/canneal_big2.champsimtrace")
*** Reached end of trace: (2, "traces/canneal_big3.champsimtrace")
*** Reached end of trace: (7, "traces/canneal_big3.champsimtrace")
*** Reached end of trace: (6, "traces/canneal_big2.champsimtrace")
*** Reached end of trace: (3, "traces/canneal_big4.champsimtrace")
Heartbeat CPU 3 instructions: 200000001 cycles: 50003430 heartbeat IPC: 4 cumulative IPC: 4 (Simulation time: 02 hr 14 min 07 sec)
*** Reached end of trace: (1, "traces/canneal_big2.champsimtrace")
*** Reached end of trace: (2, "traces/canneal_big3.champsimtrace")
*** Reached end of trace: (7, "traces/canneal_big3.champsimtrace")
Heartbeat CPU 1 instructions: 200000001 cycles: 50003610 heartbeat IPC: 4 cumulative IPC: 4 (Simulation time: 02 hr 14 min 07 sec)
Heartbeat CPU 2 instructions: 200000001 cycles: 50003649 heartbeat IPC: 4 cumulative IPC: 4 (Simulation time: 02 hr 14 min 07 sec)
Heartbeat CPU 7 instructions: 200000001 cycles: 50003654 heartbeat IPC: 4 cumulative IPC: 4 (Simulation time: 02 hr 14 min 07 sec)
*** Reached end of trace: (6, "traces/canneal_big2.champsimtrace")
Heartbeat CPU 6 instructions: 200000001 cycles: 50003811 heartbeat IPC: 4 cumulative IPC: 4 (Simulation time: 02 hr 14 min 07 sec)
*** Reached end of trace: (4, "traces/canneal_big0.champsimtrace")
*** Reached end of trace: (3, "traces/canneal_big4.champsimtrace")
*** Reached end of trace: (1, "traces/canneal_big2.champsimtrace")
*** Reached end of trace: (2, "traces/canneal_big3.champsimtrace")
*** Reached end of trace: (7, "traces/canneal_big3.champsimtrace")
*** Reached end of trace: (6, "traces/canneal_big2.champsimtrace")
*** Reached end of trace: (3, "traces/canneal_big4.champsimtrace")
Heartbeat CPU 3 instructions: 210000001 cycles: 52503430 heartbeat IPC: 4 cumulative IPC: 4 (Simulation time: 02 hr 19 min 58 sec)
*** Reached end of trace: (1, "traces/canneal_big2.champsimtrace")
*** Reached end of trace: (2, "traces/canneal_big3.champsimtrace")
*** Reached end of trace: (7, "traces/canneal_big3.champsimtrace")
Heartbeat CPU 1 instructions: 210000001 cycles: 52503610 heartbeat IPC: 4 cumulative IPC: 4 (Simulation time: 02 hr 19 min 58 sec)
Heartbeat CPU 2 instructions: 210000001 cycles: 52503649 heartbeat IPC: 4 cumulative IPC: 4 (Simulation time: 02 hr 19 min 58 sec)
Heartbeat CPU 7 instructions: 210000001 cycles: 52503654 heartbeat IPC: 4 cumulative IPC: 4 (Simulation time: 02 hr 19 min 58 sec)
*** Reached end of trace: (6, "traces/canneal_big2.champsimtrace")
Heartbeat CPU 6 instructions: 210000001 cycles: 52503811 heartbeat IPC: 4 cumulative IPC: 4 (Simulation time: 02 hr 19 min 58 sec)
*** Reached end of trace: (4, "traces/canneal_big0.champsimtrace")
Heartbeat CPU 4 instructions: 130000034 cycles: 53040770 heartbeat IPC: 2.265 cumulative IPC: 2.275 (Simulation time: 02 hr 21 min 12 sec)
*** Reached end of trace: (3, "traces/canneal_big4.champsimtrace")
*** Reached end of trace: (1, "traces/canneal_big2.champsimtrace")
*** Reached end of trace: (2, "traces/canneal_big3.champsimtrace")
*** Reached end of trace: (7, "traces/canneal_big3.champsimtrace")
*** Reached end of trace: (6, "traces/canneal_big2.champsimtrace")
*** Reached end of trace: (3, "traces/canneal_big4.champsimtrace")
Heartbeat CPU 3 instructions: 220000001 cycles: 55003430 heartbeat IPC: 4 cumulative IPC: 4 (Simulation time: 02 hr 25 min 36 sec)
*** Reached end of trace: (1, "traces/canneal_big2.champsimtrace")
*** Reached end of trace: (2, "traces/canneal_big3.champsimtrace")
*** Reached end of trace: (7, "traces/canneal_big3.champsimtrace")
Heartbeat CPU 1 instructions: 220000001 cycles: 55003610 heartbeat IPC: 4 cumulative IPC: 4 (Simulation time: 02 hr 25 min 36 sec)
Heartbeat CPU 2 instructions: 220000001 cycles: 55003649 heartbeat IPC: 4 cumulative IPC: 4 (Simulation time: 02 hr 25 min 36 sec)
Heartbeat CPU 7 instructions: 220000001 cycles: 55003654 heartbeat IPC: 4 cumulative IPC: 4 (Simulation time: 02 hr 25 min 36 sec)
*** Reached end of trace: (6, "traces/canneal_big2.champsimtrace")
Heartbeat CPU 6 instructions: 220000001 cycles: 55003811 heartbeat IPC: 4 cumulative IPC: 4 (Simulation time: 02 hr 25 min 36 sec)
Simulation finished CPU 7 instructions: 100000000 cycles: 25000000 cumulative IPC: 4 (Simulation time: 02 hr 25 min 41 sec)
Simulation finished CPU 6 instructions: 100000000 cycles: 25000000 cumulative IPC: 4 (Simulation time: 02 hr 25 min 41 sec)
Simulation finished CPU 3 instructions: 100000000 cycles: 25000000 cumulative IPC: 4 (Simulation time: 02 hr 25 min 41 sec)
Simulation finished CPU 2 instructions: 100000000 cycles: 25000000 cumulative IPC: 4 (Simulation time: 02 hr 25 min 41 sec)
Simulation finished CPU 1 instructions: 100000000 cycles: 25000000 cumulative IPC: 4 (Simulation time: 02 hr 25 min 41 sec)
*** Reached end of trace: (4, "traces/canneal_big0.champsimtrace")
*** Reached end of trace: (3, "traces/canneal_big4.champsimtrace")
*** Reached end of trace: (1, "traces/canneal_big2.champsimtrace")
*** Reached end of trace: (2, "traces/canneal_big3.champsimtrace")
*** Reached end of trace: (7, "traces/canneal_big3.champsimtrace")
*** Reached end of trace: (6, "traces/canneal_big2.champsimtrace")
*** Reached end of trace: (0, "traces/canneal_big1.champsimtrace")
*** Reached end of trace: (5, "traces/canneal_big1.champsimtrace")
Heartbeat CPU 0 instructions: 60000010 cycles: 57403818 heartbeat IPC: 0.3655 cumulative IPC: 0.3655 (Simulation time: 02 hr 31 min 53 sec)
Heartbeat CPU 5 instructions: 60000010 cycles: 57403819 heartbeat IPC: 0.3655 cumulative IPC: 0.3655 (Simulation time: 02 hr 31 min 53 sec)
*** Reached end of trace: (4, "traces/canneal_big0.champsimtrace")
Heartbeat CPU 4 instructions: 140000037 cycles: 57459739 heartbeat IPC: 2.263 cumulative IPC: 2.273 (Simulation time: 02 hr 32 min 02 sec)
*** Reached end of trace: (3, "traces/canneal_big4.champsimtrace")
Heartbeat CPU 3 instructions: 230000001 cycles: 57503430 heartbeat IPC: 4 cumulative IPC: 4 (Simulation time: 02 hr 32 min 09 sec)
*** Reached end of trace: (1, "traces/canneal_big2.champsimtrace")
*** Reached end of trace: (2, "traces/canneal_big3.champsimtrace")
*** Reached end of trace: (7, "traces/canneal_big3.champsimtrace")
Heartbeat CPU 1 instructions: 230000001 cycles: 57503610 heartbeat IPC: 4 cumulative IPC: 4 (Simulation time: 02 hr 32 min 09 sec)
Heartbeat CPU 2 instructions: 230000001 cycles: 57503649 heartbeat IPC: 4 cumulative IPC: 4 (Simulation time: 02 hr 32 min 09 sec)
Heartbeat CPU 7 instructions: 230000001 cycles: 57503654 heartbeat IPC: 4 cumulative IPC: 4 (Simulation time: 02 hr 32 min 09 sec)
*** Reached end of trace: (6, "traces/canneal_big2.champsimtrace")
Heartbeat CPU 6 instructions: 230000001 cycles: 57503811 heartbeat IPC: 4 cumulative IPC: 4 (Simulation time: 02 hr 32 min 09 sec)
*** Reached end of trace: (3, "traces/canneal_big4.champsimtrace")
*** Reached end of trace: (1, "traces/canneal_big2.champsimtrace")
*** Reached end of trace: (2, "traces/canneal_big3.champsimtrace")
*** Reached end of trace: (7, "traces/canneal_big3.champsimtrace")
*** Reached end of trace: (6, "traces/canneal_big2.champsimtrace")
*** Reached end of trace: (4, "traces/canneal_big0.champsimtrace")
*** Reached end of trace: (3, "traces/canneal_big4.champsimtrace")
Heartbeat CPU 3 instructions: 240000001 cycles: 60003430 heartbeat IPC: 4 cumulative IPC: 4 (Simulation time: 02 hr 39 min 12 sec)
*** Reached end of trace: (1, "traces/canneal_big2.champsimtrace")
*** Reached end of trace: (2, "traces/canneal_big3.champsimtrace")
*** Reached end of trace: (7, "traces/canneal_big3.champsimtrace")
Heartbeat CPU 1 instructions: 240000001 cycles: 60003610 heartbeat IPC: 4 cumulative IPC: 4 (Simulation time: 02 hr 39 min 12 sec)
Heartbeat CPU 2 instructions: 240000001 cycles: 60003649 heartbeat IPC: 4 cumulative IPC: 4 (Simulation time: 02 hr 39 min 12 sec)
Heartbeat CPU 7 instructions: 240000001 cycles: 60003654 heartbeat IPC: 4 cumulative IPC: 4 (Simulation time: 02 hr 39 min 12 sec)
*** Reached end of trace: (6, "traces/canneal_big2.champsimtrace")
Heartbeat CPU 6 instructions: 240000001 cycles: 60003811 heartbeat IPC: 4 cumulative IPC: 4 (Simulation time: 02 hr 39 min 12 sec)
*** Reached end of trace: (3, "traces/canneal_big4.champsimtrace")
*** Reached end of trace: (1, "traces/canneal_big2.champsimtrace")
*** Reached end of trace: (2, "traces/canneal_big3.champsimtrace")
*** Reached end of trace: (7, "traces/canneal_big3.champsimtrace")
*** Reached end of trace: (6, "traces/canneal_big2.champsimtrace")
*** Reached end of trace: (4, "traces/canneal_big0.champsimtrace")
Heartbeat CPU 4 instructions: 150000040 cycles: 61887372 heartbeat IPC: 2.259 cumulative IPC: 2.271 (Simulation time: 02 hr 44 min 30 sec)
*** Reached end of trace: (3, "traces/canneal_big4.champsimtrace")
Heartbeat CPU 3 instructions: 250000001 cycles: 62503430 heartbeat IPC: 4 cumulative IPC: 4 (Simulation time: 02 hr 46 min 10 sec)
*** Reached end of trace: (1, "traces/canneal_big2.champsimtrace")
*** Reached end of trace: (2, "traces/canneal_big3.champsimtrace")
*** Reached end of trace: (7, "traces/canneal_big3.champsimtrace")
Heartbeat CPU 1 instructions: 250000001 cycles: 62503610 heartbeat IPC: 4 cumulative IPC: 4 (Simulation time: 02 hr 46 min 10 sec)
Heartbeat CPU 2 instructions: 250000001 cycles: 62503649 heartbeat IPC: 4 cumulative IPC: 4 (Simulation time: 02 hr 46 min 10 sec)
Heartbeat CPU 7 instructions: 250000001 cycles: 62503654 heartbeat IPC: 4 cumulative IPC: 4 (Simulation time: 02 hr 46 min 10 sec)
*** Reached end of trace: (6, "traces/canneal_big2.champsimtrace")
Heartbeat CPU 6 instructions: 250000001 cycles: 62503811 heartbeat IPC: 4 cumulative IPC: 4 (Simulation time: 02 hr 46 min 10 sec)
*** Reached end of trace: (3, "traces/canneal_big4.champsimtrace")
*** Reached end of trace: (1, "traces/canneal_big2.champsimtrace")
*** Reached end of trace: (2, "traces/canneal_big3.champsimtrace")
*** Reached end of trace: (7, "traces/canneal_big3.champsimtrace")
*** Reached end of trace: (6, "traces/canneal_big2.champsimtrace")
*** Reached end of trace: (4, "traces/canneal_big0.champsimtrace")
*** Reached end of trace: (3, "traces/canneal_big4.champsimtrace")
Heartbeat CPU 3 instructions: 260000001 cycles: 65003430 heartbeat IPC: 4 cumulative IPC: 4 (Simulation time: 02 hr 53 min 29 sec)
*** Reached end of trace: (1, "traces/canneal_big2.champsimtrace")
*** Reached end of trace: (2, "traces/canneal_big3.champsimtrace")
*** Reached end of trace: (7, "traces/canneal_big3.champsimtrace")
Heartbeat CPU 1 instructions: 260000001 cycles: 65003610 heartbeat IPC: 4 cumulative IPC: 4 (Simulation time: 02 hr 53 min 29 sec)
Heartbeat CPU 2 instructions: 260000001 cycles: 65003649 heartbeat IPC: 4 cumulative IPC: 4 (Simulation time: 02 hr 53 min 29 sec)
Heartbeat CPU 7 instructions: 260000001 cycles: 65003654 heartbeat IPC: 4 cumulative IPC: 4 (Simulation time: 02 hr 53 min 29 sec)
*** Reached end of trace: (6, "traces/canneal_big2.champsimtrace")
Heartbeat CPU 6 instructions: 260000001 cycles: 65003811 heartbeat IPC: 4 cumulative IPC: 4 (Simulation time: 02 hr 53 min 29 sec)
*** Reached end of trace: (3, "traces/canneal_big4.champsimtrace")
*** Reached end of trace: (1, "traces/canneal_big2.champsimtrace")
*** Reached end of trace: (2, "traces/canneal_big3.champsimtrace")
*** Reached end of trace: (7, "traces/canneal_big3.champsimtrace")
*** Reached end of trace: (6, "traces/canneal_big2.champsimtrace")
*** Reached end of trace: (4, "traces/canneal_big0.champsimtrace")
Heartbeat CPU 4 instructions: 160000043 cycles: 66297716 heartbeat IPC: 2.267 cumulative IPC: 2.271 (Simulation time: 02 hr 57 min 15 sec)
*** Reached end of trace: (3, "traces/canneal_big4.champsimtrace")
Heartbeat CPU 3 instructions: 270000001 cycles: 67503430 heartbeat IPC: 4 cumulative IPC: 4 (Simulation time: 03 hr 00 min 37 sec)
*** Reached end of trace: (1, "traces/canneal_big2.champsimtrace")
*** Reached end of trace: (2, "traces/canneal_big3.champsimtrace")
*** Reached end of trace: (7, "traces/canneal_big3.champsimtrace")
Heartbeat CPU 1 instructions: 270000001 cycles: 67503610 heartbeat IPC: 4 cumulative IPC: 4 (Simulation time: 03 hr 00 min 37 sec)
Heartbeat CPU 2 instructions: 270000001 cycles: 67503649 heartbeat IPC: 4 cumulative IPC: 4 (Simulation time: 03 hr 00 min 38 sec)
Heartbeat CPU 7 instructions: 270000001 cycles: 67503654 heartbeat IPC: 4 cumulative IPC: 4 (Simulation time: 03 hr 00 min 38 sec)
*** Reached end of trace: (6, "traces/canneal_big2.champsimtrace")
Heartbeat CPU 6 instructions: 270000001 cycles: 67503811 heartbeat IPC: 4 cumulative IPC: 4 (Simulation time: 03 hr 00 min 38 sec)
*** Reached end of trace: (4, "traces/canneal_big0.champsimtrace")
*** Reached end of trace: (3, "traces/canneal_big4.champsimtrace")
*** Reached end of trace: (1, "traces/canneal_big2.champsimtrace")
*** Reached end of trace: (2, "traces/canneal_big3.champsimtrace")
*** Reached end of trace: (7, "traces/canneal_big3.champsimtrace")
*** Reached end of trace: (6, "traces/canneal_big2.champsimtrace")
*** Reached end of trace: (3, "traces/canneal_big4.champsimtrace")
Heartbeat CPU 3 instructions: 280000001 cycles: 70003430 heartbeat IPC: 4 cumulative IPC: 4 (Simulation time: 03 hr 07 min 15 sec)
*** Reached end of trace: (1, "traces/canneal_big2.champsimtrace")
*** Reached end of trace: (2, "traces/canneal_big3.champsimtrace")
*** Reached end of trace: (7, "traces/canneal_big3.champsimtrace")
Heartbeat CPU 1 instructions: 280000001 cycles: 70003610 heartbeat IPC: 4 cumulative IPC: 4 (Simulation time: 03 hr 07 min 15 sec)
Heartbeat CPU 2 instructions: 280000001 cycles: 70003649 heartbeat IPC: 4 cumulative IPC: 4 (Simulation time: 03 hr 07 min 15 sec)
Heartbeat CPU 7 instructions: 280000001 cycles: 70003654 heartbeat IPC: 4 cumulative IPC: 4 (Simulation time: 03 hr 07 min 15 sec)
*** Reached end of trace: (6, "traces/canneal_big2.champsimtrace")
Heartbeat CPU 6 instructions: 280000001 cycles: 70003811 heartbeat IPC: 4 cumulative IPC: 4 (Simulation time: 03 hr 07 min 15 sec)
*** Reached end of trace: (4, "traces/canneal_big0.champsimtrace")
Heartbeat CPU 4 instructions: 170000046 cycles: 70714717 heartbeat IPC: 2.264 cumulative IPC: 2.27 (Simulation time: 03 hr 09 min 09 sec)
*** Reached end of trace: (0, "traces/canneal_big1.champsimtrace")
*** Reached end of trace: (5, "traces/canneal_big1.champsimtrace")
*** Reached end of trace: (3, "traces/canneal_big4.champsimtrace")
*** Reached end of trace: (1, "traces/canneal_big2.champsimtrace")
*** Reached end of trace: (2, "traces/canneal_big3.champsimtrace")
*** Reached end of trace: (7, "traces/canneal_big3.champsimtrace")
*** Reached end of trace: (6, "traces/canneal_big2.champsimtrace")
*** Reached end of trace: (3, "traces/canneal_big4.champsimtrace")
Heartbeat CPU 3 instructions: 290000001 cycles: 72503430 heartbeat IPC: 4 cumulative IPC: 4 (Simulation time: 03 hr 14 min 10 sec)
*** Reached end of trace: (1, "traces/canneal_big2.champsimtrace")
*** Reached end of trace: (2, "traces/canneal_big3.champsimtrace")
*** Reached end of trace: (7, "traces/canneal_big3.champsimtrace")
Heartbeat CPU 1 instructions: 290000001 cycles: 72503610 heartbeat IPC: 4 cumulative IPC: 4 (Simulation time: 03 hr 14 min 10 sec)
Heartbeat CPU 2 instructions: 290000001 cycles: 72503649 heartbeat IPC: 4 cumulative IPC: 4 (Simulation time: 03 hr 14 min 10 sec)
Heartbeat CPU 7 instructions: 290000001 cycles: 72503654 heartbeat IPC: 4 cumulative IPC: 4 (Simulation time: 03 hr 14 min 10 sec)
*** Reached end of trace: (6, "traces/canneal_big2.champsimtrace")
Heartbeat CPU 6 instructions: 290000001 cycles: 72503811 heartbeat IPC: 4 cumulative IPC: 4 (Simulation time: 03 hr 14 min 10 sec)
*** Reached end of trace: (4, "traces/canneal_big0.champsimtrace")
*** Reached end of trace: (3, "traces/canneal_big4.champsimtrace")
*** Reached end of trace: (1, "traces/canneal_big2.champsimtrace")
*** Reached end of trace: (2, "traces/canneal_big3.champsimtrace")
*** Reached end of trace: (7, "traces/canneal_big3.champsimtrace")
*** Reached end of trace: (6, "traces/canneal_big2.champsimtrace")
Simulation finished CPU 4 instructions: 100000000 cycles: 44212803 cumulative IPC: 2.262 (Simulation time: 03 hr 19 min 12 sec)
*** Reached end of trace: (3, "traces/canneal_big4.champsimtrace")
Heartbeat CPU 3 instructions: 300000001 cycles: 75003430 heartbeat IPC: 4 cumulative IPC: 4 (Simulation time: 03 hr 21 min 17 sec)
*** Reached end of trace: (1, "traces/canneal_big2.champsimtrace")
*** Reached end of trace: (2, "traces/canneal_big3.champsimtrace")
*** Reached end of trace: (7, "traces/canneal_big3.champsimtrace")
Heartbeat CPU 1 instructions: 300000001 cycles: 75003610 heartbeat IPC: 4 cumulative IPC: 4 (Simulation time: 03 hr 21 min 17 sec)
Heartbeat CPU 2 instructions: 300000001 cycles: 75003649 heartbeat IPC: 4 cumulative IPC: 4 (Simulation time: 03 hr 21 min 17 sec)
Heartbeat CPU 7 instructions: 300000001 cycles: 75003654 heartbeat IPC: 4 cumulative IPC: 4 (Simulation time: 03 hr 21 min 17 sec)
*** Reached end of trace: (6, "traces/canneal_big2.champsimtrace")
Heartbeat CPU 6 instructions: 300000001 cycles: 75003811 heartbeat IPC: 4 cumulative IPC: 4 (Simulation time: 03 hr 21 min 17 sec)
*** Reached end of trace: (4, "traces/canneal_big0.champsimtrace")
Heartbeat CPU 4 instructions: 180000049 cycles: 75129925 heartbeat IPC: 2.265 cumulative IPC: 2.27 (Simulation time: 03 hr 21 min 36 sec)
*** Reached end of trace: (3, "traces/canneal_big4.champsimtrace")
*** Reached end of trace: (1, "traces/canneal_big2.champsimtrace")
*** Reached end of trace: (2, "traces/canneal_big3.champsimtrace")
*** Reached end of trace: (7, "traces/canneal_big3.champsimtrace")
*** Reached end of trace: (6, "traces/canneal_big2.champsimtrace")
*** Reached end of trace: (4, "traces/canneal_big0.champsimtrace")
*** Reached end of trace: (3, "traces/canneal_big4.champsimtrace")
Heartbeat CPU 3 instructions: 310000001 cycles: 77503430 heartbeat IPC: 4 cumulative IPC: 4 (Simulation time: 03 hr 27 min 45 sec)
*** Reached end of trace: (1, "traces/canneal_big2.champsimtrace")
*** Reached end of trace: (2, "traces/canneal_big3.champsimtrace")
*** Reached end of trace: (7, "traces/canneal_big3.champsimtrace")
Heartbeat CPU 1 instructions: 310000001 cycles: 77503610 heartbeat IPC: 4 cumulative IPC: 4 (Simulation time: 03 hr 27 min 45 sec)
Heartbeat CPU 2 instructions: 310000001 cycles: 77503649 heartbeat IPC: 4 cumulative IPC: 4 (Simulation time: 03 hr 27 min 45 sec)
Heartbeat CPU 7 instructions: 310000001 cycles: 77503654 heartbeat IPC: 4 cumulative IPC: 4 (Simulation time: 03 hr 27 min 45 sec)
*** Reached end of trace: (6, "traces/canneal_big2.champsimtrace")
Heartbeat CPU 6 instructions: 310000001 cycles: 77503811 heartbeat IPC: 4 cumulative IPC: 4 (Simulation time: 03 hr 27 min 45 sec)
*** Reached end of trace: (3, "traces/canneal_big4.champsimtrace")
*** Reached end of trace: (1, "traces/canneal_big2.champsimtrace")
*** Reached end of trace: (2, "traces/canneal_big3.champsimtrace")
*** Reached end of trace: (7, "traces/canneal_big3.champsimtrace")
*** Reached end of trace: (6, "traces/canneal_big2.champsimtrace")
*** Reached end of trace: (4, "traces/canneal_big0.champsimtrace")
Heartbeat CPU 4 instructions: 190000052 cycles: 79552279 heartbeat IPC: 2.261 cumulative IPC: 2.269 (Simulation time: 03 hr 33 min 32 sec)
*** Reached end of trace: (3, "traces/canneal_big4.champsimtrace")
Heartbeat CPU 3 instructions: 320000001 cycles: 80003430 heartbeat IPC: 4 cumulative IPC: 4 (Simulation time: 03 hr 34 min 48 sec)
*** Reached end of trace: (1, "traces/canneal_big2.champsimtrace")
*** Reached end of trace: (2, "traces/canneal_big3.champsimtrace")
*** Reached end of trace: (7, "traces/canneal_big3.champsimtrace")
Heartbeat CPU 1 instructions: 320000001 cycles: 80003610 heartbeat IPC: 4 cumulative IPC: 4 (Simulation time: 03 hr 34 min 48 sec)
Heartbeat CPU 2 instructions: 320000001 cycles: 80003649 heartbeat IPC: 4 cumulative IPC: 4 (Simulation time: 03 hr 34 min 49 sec)
Heartbeat CPU 7 instructions: 320000001 cycles: 80003654 heartbeat IPC: 4 cumulative IPC: 4 (Simulation time: 03 hr 34 min 49 sec)
*** Reached end of trace: (6, "traces/canneal_big2.champsimtrace")
Heartbeat CPU 6 instructions: 320000001 cycles: 80003811 heartbeat IPC: 4 cumulative IPC: 4 (Simulation time: 03 hr 34 min 49 sec)
*** Reached end of trace: (3, "traces/canneal_big4.champsimtrace")
*** Reached end of trace: (1, "traces/canneal_big2.champsimtrace")
*** Reached end of trace: (2, "traces/canneal_big3.champsimtrace")
*** Reached end of trace: (7, "traces/canneal_big3.champsimtrace")
*** Reached end of trace: (6, "traces/canneal_big2.champsimtrace")
*** Reached end of trace: (4, "traces/canneal_big0.champsimtrace")
*** Reached end of trace: (3, "traces/canneal_big4.champsimtrace")
Heartbeat CPU 3 instructions: 330000001 cycles: 82503430 heartbeat IPC: 4 cumulative IPC: 4 (Simulation time: 03 hr 42 min 09 sec)
*** Reached end of trace: (1, "traces/canneal_big2.champsimtrace")
*** Reached end of trace: (2, "traces/canneal_big3.champsimtrace")
*** Reached end of trace: (7, "traces/canneal_big3.champsimtrace")
Heartbeat CPU 1 instructions: 330000001 cycles: 82503610 heartbeat IPC: 4 cumulative IPC: 4 (Simulation time: 03 hr 42 min 09 sec)
Heartbeat CPU 2 instructions: 330000001 cycles: 82503649 heartbeat IPC: 4 cumulative IPC: 4 (Simulation time: 03 hr 42 min 09 sec)
Heartbeat CPU 7 instructions: 330000001 cycles: 82503654 heartbeat IPC: 4 cumulative IPC: 4 (Simulation time: 03 hr 42 min 09 sec)
*** Reached end of trace: (6, "traces/canneal_big2.champsimtrace")
Heartbeat CPU 6 instructions: 330000001 cycles: 82503811 heartbeat IPC: 4 cumulative IPC: 4 (Simulation time: 03 hr 42 min 09 sec)
*** Reached end of trace: (3, "traces/canneal_big4.champsimtrace")
*** Reached end of trace: (1, "traces/canneal_big2.champsimtrace")
*** Reached end of trace: (2, "traces/canneal_big3.champsimtrace")
*** Reached end of trace: (7, "traces/canneal_big3.champsimtrace")
*** Reached end of trace: (6, "traces/canneal_big2.champsimtrace")
*** Reached end of trace: (4, "traces/canneal_big0.champsimtrace")
Heartbeat CPU 4 instructions: 200000055 cycles: 83970530 heartbeat IPC: 2.263 cumulative IPC: 2.268 (Simulation time: 03 hr 46 min 19 sec)
*** Reached end of trace: (0, "traces/canneal_big1.champsimtrace")
*** Reached end of trace: (5, "traces/canneal_big1.champsimtrace")
Heartbeat CPU 0 instructions: 70000012 cycles: 84785409 heartbeat IPC: 0.3652 cumulative IPC: 0.3654 (Simulation time: 03 hr 48 min 41 sec)
Heartbeat CPU 5 instructions: 70000012 cycles: 84785410 heartbeat IPC: 0.3652 cumulative IPC: 0.3654 (Simulation time: 03 hr 48 min 41 sec)
*** Reached end of trace: (3, "traces/canneal_big4.champsimtrace")
Heartbeat CPU 3 instructions: 340000001 cycles: 85003430 heartbeat IPC: 4 cumulative IPC: 4 (Simulation time: 03 hr 49 min 13 sec)
*** Reached end of trace: (1, "traces/canneal_big2.champsimtrace")
*** Reached end of trace: (2, "traces/canneal_big3.champsimtrace")
*** Reached end of trace: (7, "traces/canneal_big3.champsimtrace")
Heartbeat CPU 1 instructions: 340000001 cycles: 85003610 heartbeat IPC: 4 cumulative IPC: 4 (Simulation time: 03 hr 49 min 13 sec)
Heartbeat CPU 2 instructions: 340000001 cycles: 85003649 heartbeat IPC: 4 cumulative IPC: 4 (Simulation time: 03 hr 49 min 13 sec)
Heartbeat CPU 7 instructions: 340000001 cycles: 85003654 heartbeat IPC: 4 cumulative IPC: 4 (Simulation time: 03 hr 49 min 13 sec)
*** Reached end of trace: (6, "traces/canneal_big2.champsimtrace")
Heartbeat CPU 6 instructions: 340000001 cycles: 85003811 heartbeat IPC: 4 cumulative IPC: 4 (Simulation time: 03 hr 49 min 13 sec)
*** Reached end of trace: (4, "traces/canneal_big0.champsimtrace")
*** Reached end of trace: (3, "traces/canneal_big4.champsimtrace")
*** Reached end of trace: (1, "traces/canneal_big2.champsimtrace")
*** Reached end of trace: (2, "traces/canneal_big3.champsimtrace")
*** Reached end of trace: (7, "traces/canneal_big3.champsimtrace")
*** Reached end of trace: (6, "traces/canneal_big2.champsimtrace")
*** Reached end of trace: (3, "traces/canneal_big4.champsimtrace")
Heartbeat CPU 3 instructions: 350000001 cycles: 87503430 heartbeat IPC: 4 cumulative IPC: 4 (Simulation time: 03 hr 55 min 37 sec)
*** Reached end of trace: (1, "traces/canneal_big2.champsimtrace")
*** Reached end of trace: (2, "traces/canneal_big3.champsimtrace")
*** Reached end of trace: (7, "traces/canneal_big3.champsimtrace")
Heartbeat CPU 1 instructions: 350000001 cycles: 87503610 heartbeat IPC: 4 cumulative IPC: 4 (Simulation time: 03 hr 55 min 37 sec)
Heartbeat CPU 2 instructions: 350000001 cycles: 87503649 heartbeat IPC: 4 cumulative IPC: 4 (Simulation time: 03 hr 55 min 37 sec)
Heartbeat CPU 7 instructions: 350000001 cycles: 87503654 heartbeat IPC: 4 cumulative IPC: 4 (Simulation time: 03 hr 55 min 37 sec)
*** Reached end of trace: (6, "traces/canneal_big2.champsimtrace")
Heartbeat CPU 6 instructions: 350000001 cycles: 87503811 heartbeat IPC: 4 cumulative IPC: 4 (Simulation time: 03 hr 55 min 37 sec)
*** Reached end of trace: (4, "traces/canneal_big0.champsimtrace")
Heartbeat CPU 4 instructions: 210000058 cycles: 88394311 heartbeat IPC: 2.261 cumulative IPC: 2.268 (Simulation time: 03 hr 57 min 58 sec)
*** Reached end of trace: (3, "traces/canneal_big4.champsimtrace")
*** Reached end of trace: (1, "traces/canneal_big2.champsimtrace")
*** Reached end of trace: (2, "traces/canneal_big3.champsimtrace")
*** Reached end of trace: (7, "traces/canneal_big3.champsimtrace")
*** Reached end of trace: (6, "traces/canneal_big2.champsimtrace")
*** Reached end of trace: (3, "traces/canneal_big4.champsimtrace")
Heartbeat CPU 3 instructions: 360000001 cycles: 90003430 heartbeat IPC: 4 cumulative IPC: 4 (Simulation time: 04 hr 02 min 01 sec)
*** Reached end of trace: (1, "traces/canneal_big2.champsimtrace")
*** Reached end of trace: (2, "traces/canneal_big3.champsimtrace")
*** Reached end of trace: (7, "traces/canneal_big3.champsimtrace")
Heartbeat CPU 1 instructions: 360000001 cycles: 90003610 heartbeat IPC: 4 cumulative IPC: 4 (Simulation time: 04 hr 02 min 01 sec)
Heartbeat CPU 2 instructions: 360000001 cycles: 90003649 heartbeat IPC: 4 cumulative IPC: 4 (Simulation time: 04 hr 02 min 01 sec)
Heartbeat CPU 7 instructions: 360000001 cycles: 90003654 heartbeat IPC: 4 cumulative IPC: 4 (Simulation time: 04 hr 02 min 01 sec)
*** Reached end of trace: (6, "traces/canneal_big2.champsimtrace")
Heartbeat CPU 6 instructions: 360000001 cycles: 90003811 heartbeat IPC: 4 cumulative IPC: 4 (Simulation time: 04 hr 02 min 01 sec)
*** Reached end of trace: (4, "traces/canneal_big0.champsimtrace")
*** Reached end of trace: (3, "traces/canneal_big4.champsimtrace")
*** Reached end of trace: (1, "traces/canneal_big2.champsimtrace")
*** Reached end of trace: (2, "traces/canneal_big3.champsimtrace")
*** Reached end of trace: (7, "traces/canneal_big3.champsimtrace")
*** Reached end of trace: (6, "traces/canneal_big2.champsimtrace")
*** Reached end of trace: (3, "traces/canneal_big4.champsimtrace")
Heartbeat CPU 3 instructions: 370000001 cycles: 92503430 heartbeat IPC: 4 cumulative IPC: 4 (Simulation time: 04 hr 08 min 11 sec)
*** Reached end of trace: (1, "traces/canneal_big2.champsimtrace")
*** Reached end of trace: (2, "traces/canneal_big3.champsimtrace")
*** Reached end of trace: (7, "traces/canneal_big3.champsimtrace")
Heartbeat CPU 1 instructions: 370000001 cycles: 92503610 heartbeat IPC: 4 cumulative IPC: 4 (Simulation time: 04 hr 08 min 11 sec)
Heartbeat CPU 2 instructions: 370000001 cycles: 92503649 heartbeat IPC: 4 cumulative IPC: 4 (Simulation time: 04 hr 08 min 11 sec)
Heartbeat CPU 7 instructions: 370000001 cycles: 92503654 heartbeat IPC: 4 cumulative IPC: 4 (Simulation time: 04 hr 08 min 11 sec)
*** Reached end of trace: (6, "traces/canneal_big2.champsimtrace")
Heartbeat CPU 6 instructions: 370000001 cycles: 92503811 heartbeat IPC: 4 cumulative IPC: 4 (Simulation time: 04 hr 08 min 11 sec)
*** Reached end of trace: (4, "traces/canneal_big0.champsimtrace")
Heartbeat CPU 4 instructions: 220000058 cycles: 92817742 heartbeat IPC: 2.261 cumulative IPC: 2.267 (Simulation time: 04 hr 08 min 55 sec)
*** Reached end of trace: (3, "traces/canneal_big4.champsimtrace")
*** Reached end of trace: (1, "traces/canneal_big2.champsimtrace")
*** Reached end of trace: (2, "traces/canneal_big3.champsimtrace")
*** Reached end of trace: (7, "traces/canneal_big3.champsimtrace")
*** Reached end of trace: (6, "traces/canneal_big2.champsimtrace")
*** Reached end of trace: (3, "traces/canneal_big4.champsimtrace")
Heartbeat CPU 3 instructions: 380000001 cycles: 95003430 heartbeat IPC: 4 cumulative IPC: 4 (Simulation time: 04 hr 14 min 46 sec)
*** Reached end of trace: (1, "traces/canneal_big2.champsimtrace")
*** Reached end of trace: (2, "traces/canneal_big3.champsimtrace")
*** Reached end of trace: (7, "traces/canneal_big3.champsimtrace")
Heartbeat CPU 1 instructions: 380000001 cycles: 95003610 heartbeat IPC: 4 cumulative IPC: 4 (Simulation time: 04 hr 14 min 46 sec)
Heartbeat CPU 2 instructions: 380000001 cycles: 95003649 heartbeat IPC: 4 cumulative IPC: 4 (Simulation time: 04 hr 14 min 46 sec)
Heartbeat CPU 7 instructions: 380000001 cycles: 95003654 heartbeat IPC: 4 cumulative IPC: 4 (Simulation time: 04 hr 14 min 46 sec)
*** Reached end of trace: (6, "traces/canneal_big2.champsimtrace")
Heartbeat CPU 6 instructions: 380000001 cycles: 95003811 heartbeat IPC: 4 cumulative IPC: 4 (Simulation time: 04 hr 14 min 46 sec)
*** Reached end of trace: (4, "traces/canneal_big0.champsimtrace")
*** Reached end of trace: (3, "traces/canneal_big4.champsimtrace")
*** Reached end of trace: (1, "traces/canneal_big2.champsimtrace")
*** Reached end of trace: (2, "traces/canneal_big3.champsimtrace")
*** Reached end of trace: (7, "traces/canneal_big3.champsimtrace")
*** Reached end of trace: (6, "traces/canneal_big2.champsimtrace")
*** Reached end of trace: (4, "traces/canneal_big0.champsimtrace")
Heartbeat CPU 4 instructions: 230000061 cycles: 97227816 heartbeat IPC: 2.268 cumulative IPC: 2.267 (Simulation time: 04 hr 20 min 33 sec)
*** Reached end of trace: (3, "traces/canneal_big4.champsimtrace")
Heartbeat CPU 3 instructions: 390000001 cycles: 97503430 heartbeat IPC: 4 cumulative IPC: 4 (Simulation time: 04 hr 21 min 16 sec)
*** Reached end of trace: (1, "traces/canneal_big2.champsimtrace")
*** Reached end of trace: (2, "traces/canneal_big3.champsimtrace")
*** Reached end of trace: (7, "traces/canneal_big3.champsimtrace")
Heartbeat CPU 1 instructions: 390000001 cycles: 97503610 heartbeat IPC: 4 cumulative IPC: 4 (Simulation time: 04 hr 21 min 16 sec)
Heartbeat CPU 2 instructions: 390000001 cycles: 97503649 heartbeat IPC: 4 cumulative IPC: 4 (Simulation time: 04 hr 21 min 16 sec)
Heartbeat CPU 7 instructions: 390000001 cycles: 97503654 heartbeat IPC: 4 cumulative IPC: 4 (Simulation time: 04 hr 21 min 16 sec)
*** Reached end of trace: (6, "traces/canneal_big2.champsimtrace")
Heartbeat CPU 6 instructions: 390000001 cycles: 97503811 heartbeat IPC: 4 cumulative IPC: 4 (Simulation time: 04 hr 21 min 16 sec)
*** Reached end of trace: (0, "traces/canneal_big1.champsimtrace")
*** Reached end of trace: (5, "traces/canneal_big1.champsimtrace")
*** Reached end of trace: (3, "traces/canneal_big4.champsimtrace")
*** Reached end of trace: (1, "traces/canneal_big2.champsimtrace")
*** Reached end of trace: (2, "traces/canneal_big3.champsimtrace")
*** Reached end of trace: (7, "traces/canneal_big3.champsimtrace")
*** Reached end of trace: (6, "traces/canneal_big2.champsimtrace")
*** Reached end of trace: (4, "traces/canneal_big0.champsimtrace")
*** Reached end of trace: (3, "traces/canneal_big4.champsimtrace")
Heartbeat CPU 3 instructions: 400000001 cycles: 100003430 heartbeat IPC: 4 cumulative IPC: 4 (Simulation time: 04 hr 27 min 44 sec)
*** Reached end of trace: (1, "traces/canneal_big2.champsimtrace")
*** Reached end of trace: (2, "traces/canneal_big3.champsimtrace")
*** Reached end of trace: (7, "traces/canneal_big3.champsimtrace")
Heartbeat CPU 1 instructions: 400000001 cycles: 100003610 heartbeat IPC: 4 cumulative IPC: 4 (Simulation time: 04 hr 27 min 44 sec)
Heartbeat CPU 2 instructions: 400000001 cycles: 100003649 heartbeat IPC: 4 cumulative IPC: 4 (Simulation time: 04 hr 27 min 44 sec)
Heartbeat CPU 7 instructions: 400000001 cycles: 100003654 heartbeat IPC: 4 cumulative IPC: 4 (Simulation time: 04 hr 27 min 44 sec)
*** Reached end of trace: (6, "traces/canneal_big2.champsimtrace")
Heartbeat CPU 6 instructions: 400000001 cycles: 100003811 heartbeat IPC: 4 cumulative IPC: 4 (Simulation time: 04 hr 27 min 44 sec)
*** Reached end of trace: (3, "traces/canneal_big4.champsimtrace")
*** Reached end of trace: (1, "traces/canneal_big2.champsimtrace")
*** Reached end of trace: (2, "traces/canneal_big3.champsimtrace")
*** Reached end of trace: (7, "traces/canneal_big3.champsimtrace")
*** Reached end of trace: (6, "traces/canneal_big2.champsimtrace")
*** Reached end of trace: (4, "traces/canneal_big0.champsimtrace")
Heartbeat CPU 4 instructions: 240000062 cycles: 101655260 heartbeat IPC: 2.259 cumulative IPC: 2.267 (Simulation time: 04 hr 32 min 06 sec)
*** Reached end of trace: (3, "traces/canneal_big4.champsimtrace")
Heartbeat CPU 3 instructions: 410000001 cycles: 102503430 heartbeat IPC: 4 cumulative IPC: 4 (Simulation time: 04 hr 34 min 11 sec)
*** Reached end of trace: (1, "traces/canneal_big2.champsimtrace")
*** Reached end of trace: (2, "traces/canneal_big3.champsimtrace")
*** Reached end of trace: (7, "traces/canneal_big3.champsimtrace")
Heartbeat CPU 1 instructions: 410000001 cycles: 102503610 heartbeat IPC: 4 cumulative IPC: 4 (Simulation time: 04 hr 34 min 11 sec)
Heartbeat CPU 2 instructions: 410000001 cycles: 102503649 heartbeat IPC: 4 cumulative IPC: 4 (Simulation time: 04 hr 34 min 11 sec)
Heartbeat CPU 7 instructions: 410000001 cycles: 102503654 heartbeat IPC: 4 cumulative IPC: 4 (Simulation time: 04 hr 34 min 11 sec)
*** Reached end of trace: (6, "traces/canneal_big2.champsimtrace")
Heartbeat CPU 6 instructions: 410000001 cycles: 102503811 heartbeat IPC: 4 cumulative IPC: 4 (Simulation time: 04 hr 34 min 11 sec)
*** Reached end of trace: (3, "traces/canneal_big4.champsimtrace")
*** Reached end of trace: (1, "traces/canneal_big2.champsimtrace")
*** Reached end of trace: (2, "traces/canneal_big3.champsimtrace")
*** Reached end of trace: (7, "traces/canneal_big3.champsimtrace")
*** Reached end of trace: (6, "traces/canneal_big2.champsimtrace")
*** Reached end of trace: (4, "traces/canneal_big0.champsimtrace")
*** Reached end of trace: (3, "traces/canneal_big4.champsimtrace")
Heartbeat CPU 3 instructions: 420000001 cycles: 105003430 heartbeat IPC: 4 cumulative IPC: 4 (Simulation time: 04 hr 40 min 24 sec)
*** Reached end of trace: (1, "traces/canneal_big2.champsimtrace")
*** Reached end of trace: (2, "traces/canneal_big3.champsimtrace")
*** Reached end of trace: (7, "traces/canneal_big3.champsimtrace")
Heartbeat CPU 1 instructions: 420000001 cycles: 105003610 heartbeat IPC: 4 cumulative IPC: 4 (Simulation time: 04 hr 40 min 24 sec)
Heartbeat CPU 2 instructions: 420000001 cycles: 105003649 heartbeat IPC: 4 cumulative IPC: 4 (Simulation time: 04 hr 40 min 24 sec)
Heartbeat CPU 7 instructions: 420000001 cycles: 105003654 heartbeat IPC: 4 cumulative IPC: 4 (Simulation time: 04 hr 40 min 24 sec)
*** Reached end of trace: (6, "traces/canneal_big2.champsimtrace")
Heartbeat CPU 6 instructions: 420000001 cycles: 105003811 heartbeat IPC: 4 cumulative IPC: 4 (Simulation time: 04 hr 40 min 24 sec)
*** Reached end of trace: (4, "traces/canneal_big0.champsimtrace")
Heartbeat CPU 4 instructions: 250000065 cycles: 106077389 heartbeat IPC: 2.261 cumulative IPC: 2.266 (Simulation time: 04 hr 43 min 11 sec)
*** Reached end of trace: (3, "traces/canneal_big4.champsimtrace")
*** Reached end of trace: (1, "traces/canneal_big2.champsimtrace")
*** Reached end of trace: (2, "traces/canneal_big3.champsimtrace")
*** Reached end of trace: (7, "traces/canneal_big3.champsimtrace")
*** Reached end of trace: (6, "traces/canneal_big2.champsimtrace")
*** Reached end of trace: (3, "traces/canneal_big4.champsimtrace")
Heartbeat CPU 3 instructions: 430000001 cycles: 107503430 heartbeat IPC: 4 cumulative IPC: 4 (Simulation time: 04 hr 46 min 27 sec)
*** Reached end of trace: (1, "traces/canneal_big2.champsimtrace")
*** Reached end of trace: (2, "traces/canneal_big3.champsimtrace")
*** Reached end of trace: (7, "traces/canneal_big3.champsimtrace")
Heartbeat CPU 1 instructions: 430000001 cycles: 107503610 heartbeat IPC: 4 cumulative IPC: 4 (Simulation time: 04 hr 46 min 27 sec)
Heartbeat CPU 2 instructions: 430000001 cycles: 107503649 heartbeat IPC: 4 cumulative IPC: 4 (Simulation time: 04 hr 46 min 27 sec)
Heartbeat CPU 7 instructions: 430000001 cycles: 107503654 heartbeat IPC: 4 cumulative IPC: 4 (Simulation time: 04 hr 46 min 27 sec)
*** Reached end of trace: (6, "traces/canneal_big2.champsimtrace")
Heartbeat CPU 6 instructions: 430000001 cycles: 107503811 heartbeat IPC: 4 cumulative IPC: 4 (Simulation time: 04 hr 46 min 27 sec)
*** Reached end of trace: (4, "traces/canneal_big0.champsimtrace")
*** Reached end of trace: (3, "traces/canneal_big4.champsimtrace")
*** Reached end of trace: (1, "traces/canneal_big2.champsimtrace")
*** Reached end of trace: (2, "traces/canneal_big3.champsimtrace")
*** Reached end of trace: (7, "traces/canneal_big3.champsimtrace")
*** Reached end of trace: (6, "traces/canneal_big2.champsimtrace")
*** Reached end of trace: (3, "traces/canneal_big4.champsimtrace")
Heartbeat CPU 3 instructions: 440000001 cycles: 110003430 heartbeat IPC: 4 cumulative IPC: 4 (Simulation time: 04 hr 51 min 52 sec)
*** Reached end of trace: (1, "traces/canneal_big2.champsimtrace")
*** Reached end of trace: (2, "traces/canneal_big3.champsimtrace")
*** Reached end of trace: (7, "traces/canneal_big3.champsimtrace")
Heartbeat CPU 1 instructions: 440000001 cycles: 110003610 heartbeat IPC: 4 cumulative IPC: 4 (Simulation time: 04 hr 51 min 52 sec)
Heartbeat CPU 2 instructions: 440000001 cycles: 110003649 heartbeat IPC: 4 cumulative IPC: 4 (Simulation time: 04 hr 51 min 52 sec)
Heartbeat CPU 7 instructions: 440000001 cycles: 110003654 heartbeat IPC: 4 cumulative IPC: 4 (Simulation time: 04 hr 51 min 52 sec)
*** Reached end of trace: (6, "traces/canneal_big2.champsimtrace")
Heartbeat CPU 6 instructions: 440000001 cycles: 110003811 heartbeat IPC: 4 cumulative IPC: 4 (Simulation time: 04 hr 51 min 52 sec)
*** Reached end of trace: (4, "traces/canneal_big0.champsimtrace")
Heartbeat CPU 4 instructions: 260000065 cycles: 110500785 heartbeat IPC: 2.261 cumulative IPC: 2.266 (Simulation time: 04 hr 52 min 56 sec)
*** Reached end of trace: (3, "traces/canneal_big4.champsimtrace")
*** Reached end of trace: (1, "traces/canneal_big2.champsimtrace")
*** Reached end of trace: (2, "traces/canneal_big3.champsimtrace")
*** Reached end of trace: (7, "traces/canneal_big3.champsimtrace")
*** Reached end of trace: (6, "traces/canneal_big2.champsimtrace")
*** Reached end of trace: (0, "traces/canneal_big1.champsimtrace")
*** Reached end of trace: (5, "traces/canneal_big1.champsimtrace")
Heartbeat CPU 0 instructions: 80000014 cycles: 112163240 heartbeat IPC: 0.3653 cumulative IPC: 0.3653 (Simulation time: 04 hr 56 min 28 sec)
Heartbeat CPU 5 instructions: 80000014 cycles: 112163241 heartbeat IPC: 0.3653 cumulative IPC: 0.3653 (Simulation time: 04 hr 56 min 28 sec)
*** Reached end of trace: (3, "traces/canneal_big4.champsimtrace")
Heartbeat CPU 3 instructions: 450000001 cycles: 112503430 heartbeat IPC: 4 cumulative IPC: 4 (Simulation time: 04 hr 57 min 12 sec)
*** Reached end of trace: (1, "traces/canneal_big2.champsimtrace")
*** Reached end of trace: (2, "traces/canneal_big3.champsimtrace")
*** Reached end of trace: (7, "traces/canneal_big3.champsimtrace")
Heartbeat CPU 1 instructions: 450000001 cycles: 112503610 heartbeat IPC: 4 cumulative IPC: 4 (Simulation time: 04 hr 57 min 12 sec)
Heartbeat CPU 2 instructions: 450000001 cycles: 112503649 heartbeat IPC: 4 cumulative IPC: 4 (Simulation time: 04 hr 57 min 12 sec)
Heartbeat CPU 7 instructions: 450000001 cycles: 112503654 heartbeat IPC: 4 cumulative IPC: 4 (Simulation time: 04 hr 57 min 12 sec)
*** Reached end of trace: (6, "traces/canneal_big2.champsimtrace")
Heartbeat CPU 6 instructions: 450000001 cycles: 112503811 heartbeat IPC: 4 cumulative IPC: 4 (Simulation time: 04 hr 57 min 12 sec)
*** Reached end of trace: (4, "traces/canneal_big0.champsimtrace")
*** Reached end of trace: (3, "traces/canneal_big4.champsimtrace")
*** Reached end of trace: (1, "traces/canneal_big2.champsimtrace")
*** Reached end of trace: (2, "traces/canneal_big3.champsimtrace")
*** Reached end of trace: (7, "traces/canneal_big3.champsimtrace")
*** Reached end of trace: (6, "traces/canneal_big2.champsimtrace")
*** Reached end of trace: (4, "traces/canneal_big0.champsimtrace")
Heartbeat CPU 4 instructions: 270000068 cycles: 114932999 heartbeat IPC: 2.256 cumulative IPC: 2.266 (Simulation time: 05 hr 02 min 25 sec)
*** Reached end of trace: (3, "traces/canneal_big4.champsimtrace")
Heartbeat CPU 3 instructions: 460000001 cycles: 115003430 heartbeat IPC: 4 cumulative IPC: 4 (Simulation time: 05 hr 02 min 34 sec)
*** Reached end of trace: (1, "traces/canneal_big2.champsimtrace")
*** Reached end of trace: (2, "traces/canneal_big3.champsimtrace")
*** Reached end of trace: (7, "traces/canneal_big3.champsimtrace")
Heartbeat CPU 1 instructions: 460000001 cycles: 115003610 heartbeat IPC: 4 cumulative IPC: 4 (Simulation time: 05 hr 02 min 34 sec)
Heartbeat CPU 2 instructions: 460000001 cycles: 115003649 heartbeat IPC: 4 cumulative IPC: 4 (Simulation time: 05 hr 02 min 34 sec)
Heartbeat CPU 7 instructions: 460000001 cycles: 115003654 heartbeat IPC: 4 cumulative IPC: 4 (Simulation time: 05 hr 02 min 34 sec)
*** Reached end of trace: (6, "traces/canneal_big2.champsimtrace")
Heartbeat CPU 6 instructions: 460000001 cycles: 115003811 heartbeat IPC: 4 cumulative IPC: 4 (Simulation time: 05 hr 02 min 34 sec)
*** Reached end of trace: (3, "traces/canneal_big4.champsimtrace")
*** Reached end of trace: (1, "traces/canneal_big2.champsimtrace")
*** Reached end of trace: (2, "traces/canneal_big3.champsimtrace")
*** Reached end of trace: (7, "traces/canneal_big3.champsimtrace")
*** Reached end of trace: (6, "traces/canneal_big2.champsimtrace")
*** Reached end of trace: (4, "traces/canneal_big0.champsimtrace")
*** Reached end of trace: (3, "traces/canneal_big4.champsimtrace")
Heartbeat CPU 3 instructions: 470000001 cycles: 117503430 heartbeat IPC: 4 cumulative IPC: 4 (Simulation time: 05 hr 07 min 58 sec)
*** Reached end of trace: (1, "traces/canneal_big2.champsimtrace")
*** Reached end of trace: (2, "traces/canneal_big3.champsimtrace")
*** Reached end of trace: (7, "traces/canneal_big3.champsimtrace")
Heartbeat CPU 1 instructions: 470000001 cycles: 117503610 heartbeat IPC: 4 cumulative IPC: 4 (Simulation time: 05 hr 07 min 58 sec)
Heartbeat CPU 2 instructions: 470000001 cycles: 117503649 heartbeat IPC: 4 cumulative IPC: 4 (Simulation time: 05 hr 07 min 58 sec)
Heartbeat CPU 7 instructions: 470000001 cycles: 117503654 heartbeat IPC: 4 cumulative IPC: 4 (Simulation time: 05 hr 07 min 58 sec)
*** Reached end of trace: (6, "traces/canneal_big2.champsimtrace")
Heartbeat CPU 6 instructions: 470000001 cycles: 117503811 heartbeat IPC: 4 cumulative IPC: 4 (Simulation time: 05 hr 07 min 58 sec)
*** Reached end of trace: (3, "traces/canneal_big4.champsimtrace")
*** Reached end of trace: (1, "traces/canneal_big2.champsimtrace")
*** Reached end of trace: (2, "traces/canneal_big3.champsimtrace")
*** Reached end of trace: (7, "traces/canneal_big3.champsimtrace")
*** Reached end of trace: (6, "traces/canneal_big2.champsimtrace")
*** Reached end of trace: (4, "traces/canneal_big0.champsimtrace")
Heartbeat CPU 4 instructions: 280000069 cycles: 119350896 heartbeat IPC: 2.264 cumulative IPC: 2.265 (Simulation time: 05 hr 11 min 59 sec)
*** Reached end of trace: (3, "traces/canneal_big4.champsimtrace")
Heartbeat CPU 3 instructions: 480000001 cycles: 120003430 heartbeat IPC: 4 cumulative IPC: 4 (Simulation time: 05 hr 13 min 24 sec)
*** Reached end of trace: (1, "traces/canneal_big2.champsimtrace")
*** Reached end of trace: (2, "traces/canneal_big3.champsimtrace")
*** Reached end of trace: (7, "traces/canneal_big3.champsimtrace")
Heartbeat CPU 1 instructions: 480000001 cycles: 120003610 heartbeat IPC: 4 cumulative IPC: 4 (Simulation time: 05 hr 13 min 24 sec)
Heartbeat CPU 2 instructions: 480000001 cycles: 120003649 heartbeat IPC: 4 cumulative IPC: 4 (Simulation time: 05 hr 13 min 24 sec)
Heartbeat CPU 7 instructions: 480000001 cycles: 120003654 heartbeat IPC: 4 cumulative IPC: 4 (Simulation time: 05 hr 13 min 24 sec)
*** Reached end of trace: (6, "traces/canneal_big2.champsimtrace")
Heartbeat CPU 6 instructions: 480000001 cycles: 120003811 heartbeat IPC: 4 cumulative IPC: 4 (Simulation time: 05 hr 13 min 24 sec)
*** Reached end of trace: (3, "traces/canneal_big4.champsimtrace")
*** Reached end of trace: (1, "traces/canneal_big2.champsimtrace")
*** Reached end of trace: (2, "traces/canneal_big3.champsimtrace")
*** Reached end of trace: (7, "traces/canneal_big3.champsimtrace")
*** Reached end of trace: (6, "traces/canneal_big2.champsimtrace")
*** Reached end of trace: (4, "traces/canneal_big0.champsimtrace")
*** Reached end of trace: (3, "traces/canneal_big4.champsimtrace")
Heartbeat CPU 3 instructions: 490000001 cycles: 122503430 heartbeat IPC: 4 cumulative IPC: 4 (Simulation time: 05 hr 18 min 51 sec)
*** Reached end of trace: (1, "traces/canneal_big2.champsimtrace")
*** Reached end of trace: (2, "traces/canneal_big3.champsimtrace")
*** Reached end of trace: (7, "traces/canneal_big3.champsimtrace")
Heartbeat CPU 1 instructions: 490000001 cycles: 122503610 heartbeat IPC: 4 cumulative IPC: 4 (Simulation time: 05 hr 18 min 51 sec)
Heartbeat CPU 2 instructions: 490000001 cycles: 122503649 heartbeat IPC: 4 cumulative IPC: 4 (Simulation time: 05 hr 18 min 51 sec)
[...]
cpu5->cpu5_ITLB PREFETCH     ACCESS:          0 HIT:          0 MISS:          0 MSHR_MERGE:          0
cpu5->cpu5_ITLB WRITE        ACCESS:          0 HIT:          0 MISS:          0 MSHR_MERGE:          0
cpu5->cpu5_ITLB TRANSLATION  ACCESS:          0 HIT:          0 MISS:          0 MSHR_MERGE:          0
cpu5->cpu5_ITLB PREFETCH REQUESTED:          0 ISSUED:          0 USEFUL:          0 USELESS:          0
cpu5->cpu5_ITLB AVERAGE MISS LATENCY: 38.85 cycles
cpu5_ITLB COHERENCE INVALIDATIONS:          0
cpu5_ITLB COHERENCE WRITE-HIT OTHER-SHARER EVENTS:          0
cpu5_DTLB COHERENCE INVALIDATIONS:          0
cpu5_DTLB COHERENCE WRITE-HIT OTHER-SHARER EVENTS:          0
cpu4->cpu4_STLB TOTAL        ACCESS:     232715 HIT:     232715 MISS:          0 MSHR_MERGE:          0
cpu4->cpu4_STLB LOAD         ACCESS:     232715 HIT:     232715 MISS:          0 MSHR_MERGE:          0
cpu4->cpu4_STLB RFO          ACCESS:          0 HIT:          0 MISS:          0 MSHR_MERGE:          0
cpu4->cpu4_STLB PREFETCH     ACCESS:          0 HIT:          0 MISS:          0 MSHR_MERGE:          0
cpu4->cpu4_STLB WRITE        ACCESS:          0 HIT:          0 MISS:          0 MSHR_MERGE:          0
cpu4->cpu4_STLB TRANSLATION  ACCESS:          0 HIT:          0 MISS:          0 MSHR_MERGE:          0
cpu4->cpu4_STLB PREFETCH REQUESTED:          0 ISSUED:          0 USEFUL:          0 USELESS:          0
cpu4->cpu4_STLB AVERAGE MISS LATENCY: - cycles
cpu4_STLB COHERENCE INVALIDATIONS:          0
cpu4_STLB COHERENCE WRITE-HIT OTHER-SHARER EVENTS:          0
cpu4->cpu4_L2C TOTAL        ACCESS:    7422343 HIT:    3597826 MISS:    3824517 MSHR_MERGE:          0
cpu4->cpu4_L2C LOAD         ACCESS:    1172626 HIT:     394783 MISS:     777843 MSHR_MERGE:          0
cpu4->cpu4_L2C RFO          ACCESS:    3100602 HIT:      54319 MISS:    3046283 MSHR_MERGE:          0
cpu4->cpu4_L2C PREFETCH     ACCESS:          0 HIT:          0 MISS:          0 MSHR_MERGE:          0
cpu4->cpu4_L2C WRITE        ACCESS:    3149115 HIT:    3148724 MISS:        391 MSHR_MERGE:          0
cpu4->cpu4_L2C TRANSLATION  ACCESS:          0 HIT:          0 MISS:          0 MSHR_MERGE:          0
cpu4->cpu4_L2C PREFETCH REQUESTED:          0 ISSUED:          0 USEFUL:          0 USELESS:          0
cpu4->cpu4_L2C AVERAGE MISS LATENCY: 73.66 cycles
cpu4_L2C COHERENCE INVALIDATIONS:          0
cpu4_L2C COHERENCE WRITE-HIT OTHER-SHARER EVENTS:          0
cpu4->cpu4_L1I TOTAL        ACCESS:   95590092 HIT:   95348405 MISS:     241687 MSHR_MERGE:      73418
cpu4->cpu4_L1I LOAD         ACCESS:   95590092 HIT:   95348405 MISS:     241687 MSHR_MERGE:      73418
cpu4->cpu4_L1I RFO          ACCESS:          0 HIT:          0 MISS:          0 MSHR_MERGE:          0
cpu4->cpu4_L1I PREFETCH     ACCESS:          0 HIT:          0 MISS:          0 MSHR_MERGE:          0
cpu4->cpu4_L1I WRITE        ACCESS:          0 HIT:          0 MISS:          0 MSHR_MERGE:          0
cpu4->cpu4_L1I TRANSLATION  ACCESS:          0 HIT:          0 MISS:          0 MSHR_MERGE:          0
cpu4->cpu4_L1I PREFETCH REQUESTED:          0 ISSUED:          0 USEFUL:          0 USELESS:          0
cpu4->cpu4_L1I AVERAGE MISS LATENCY: 244.8 cycles
cpu4_L1I COHERENCE INVALIDATIONS:          0
cpu4_L1I COHERENCE WRITE-HIT OTHER-SHARER EVENTS:          0
cpu4->cpu4_L1D TOTAL        ACCESS:  124750243 HIT:  112127373 MISS:   12622870 MSHR_MERGE:    8513278
cpu4->cpu4_L1D LOAD         ACCESS:   12502024 HIT:   10453095 MISS:    2048929 MSHR_MERGE:    1044572
cpu4->cpu4_L1D RFO          ACCESS:          0 HIT:          0 MISS:          0 MSHR_MERGE:          0
cpu4->cpu4_L1D PREFETCH     ACCESS:          0 HIT:          0 MISS:          0 MSHR_MERGE:          0
cpu4->cpu4_L1D WRITE        ACCESS:  112248219 HIT:  101674278 MISS:   10573941 MSHR_MERGE:    7468706
cpu4->cpu4_L1D TRANSLATION  ACCESS:          0 HIT:          0 MISS:          0 MSHR_MERGE:          0
cpu4->cpu4_L1D PREFETCH REQUESTED:          0 ISSUED:          0 USEFUL:          0 USELESS:          0
cpu4->cpu4_L1D AVERAGE MISS LATENCY: 66.57 cycles
cpu4_L1D COHERENCE INVALIDATIONS:          0
cpu4_L1D COHERENCE WRITE-HIT OTHER-SHARER EVENTS:          0
cpu4->cpu4_ITLB TOTAL        ACCESS:   80002564 HIT:   79969080 MISS:      33484 MSHR_MERGE:      12280
cpu4->cpu4_ITLB LOAD         ACCESS:   80002564 HIT:   79969080 MISS:      33484 MSHR_MERGE:      12280
cpu4->cpu4_ITLB RFO          ACCESS:          0 HIT:          0 MISS:          0 MSHR_MERGE:          0
cpu4->cpu4_ITLB PREFETCH     ACCESS:          0 HIT:          0 MISS:          0 MSHR_MERGE:          0
cpu4->cpu4_ITLB WRITE        ACCESS:          0 HIT:          0 MISS:          0 MSHR_MERGE:          0
cpu4->cpu4_ITLB TRANSLATION  ACCESS:          0 HIT:          0 MISS:          0 MSHR_MERGE:          0
cpu4->cpu4_ITLB PREFETCH REQUESTED:          0 ISSUED:          0 USEFUL:          0 USELESS:          0
cpu4->cpu4_ITLB AVERAGE MISS LATENCY: 4.001 cycles
cpu4_ITLB COHERENCE INVALIDATIONS:          0
cpu4_ITLB COHERENCE WRITE-HIT OTHER-SHARER EVENTS:          0
cpu4->cpu4_DTLB TOTAL        ACCESS:  101236281 HIT:  100971410 MISS:     264871 MSHR_MERGE:      53360
cpu4->cpu4_DTLB LOAD         ACCESS:  101236281 HIT:  100971410 MISS:     264871 MSHR_MERGE:      53360
cpu4->cpu4_DTLB RFO          ACCESS:          0 HIT:          0 MISS:          0 MSHR_MERGE:          0
cpu4->cpu4_DTLB PREFETCH     ACCESS:          0 HIT:          0 MISS:          0 MSHR_MERGE:          0
cpu4->cpu4_DTLB WRITE        ACCESS:          0 HIT:          0 MISS:          0 MSHR_MERGE:          0
cpu4->cpu4_DTLB TRANSLATION  ACCESS:          0 HIT:          0 MISS:          0 MSHR_MERGE:          0
cpu4->cpu4_DTLB PREFETCH REQUESTED:          0 ISSUED:          0 USEFUL:          0 USELESS:          0
cpu4->cpu4_DTLB AVERAGE MISS LATENCY: 3.988 cycles
cpu4_DTLB COHERENCE INVALIDATIONS:          0
cpu4_DTLB COHERENCE WRITE-HIT OTHER-SHARER EVENTS:          0
cpu3_STLB COHERENCE INVALIDATIONS:          0
cpu3_STLB COHERENCE WRITE-HIT OTHER-SHARER EVENTS:          0
cpu3_L2C COHERENCE INVALIDATIONS:          0
cpu3_L2C COHERENCE WRITE-HIT OTHER-SHARER EVENTS:          0
cpu3->cpu3_L1I TOTAL        ACCESS:  157474129 HIT:  157474129 MISS:          0 MSHR_MERGE:          0
cpu3->cpu3_L1I LOAD         ACCESS:  157474129 HIT:  157474129 MISS:          0 MSHR_MERGE:          0
cpu3->cpu3_L1I RFO          ACCESS:          0 HIT:          0 MISS:          0 MSHR_MERGE:          0
cpu3->cpu3_L1I PREFETCH     ACCESS:          0 HIT:          0 MISS:          0 MSHR_MERGE:          0
cpu3->cpu3_L1I WRITE        ACCESS:          0 HIT:          0 MISS:          0 MSHR_MERGE:          0
cpu3->cpu3_L1I TRANSLATION  ACCESS:          0 HIT:          0 MISS:          0 MSHR_MERGE:          0
cpu3->cpu3_L1I PREFETCH REQUESTED:          0 ISSUED:          0 USEFUL:          0 USELESS:          0
cpu3->cpu3_L1I AVERAGE MISS LATENCY: - cycles
cpu3_L1I COHERENCE INVALIDATIONS:          0
cpu3_L1I COHERENCE WRITE-HIT OTHER-SHARER EVENTS:          0
cpu3_L1D COHERENCE INVALIDATIONS:          0
cpu3_L1D COHERENCE WRITE-HIT OTHER-SHARER EVENTS:          0
cpu3->cpu3_ITLB TOTAL        ACCESS:  131339251 HIT:  131339251 MISS:          0 MSHR_MERGE:          0
cpu3->cpu3_ITLB LOAD         ACCESS:  131339251 HIT:  131339251 MISS:          0 MSHR_MERGE:          0
cpu3->cpu3_ITLB RFO          ACCESS:          0 HIT:          0 MISS:          0 MSHR_MERGE:          0
cpu3->cpu3_ITLB PREFETCH     ACCESS:          0 HIT:          0 MISS:          0 MSHR_MERGE:          0
cpu3->cpu3_ITLB WRITE        ACCESS:          0 HIT:          0 MISS:          0 MSHR_MERGE:          0
cpu3->cpu3_ITLB TRANSLATION  ACCESS:          0 HIT:          0 MISS:          0 MSHR_MERGE:          0
cpu3->cpu3_ITLB PREFETCH REQUESTED:          0 ISSUED:          0 USEFUL:          0 USELESS:          0
cpu3->cpu3_ITLB AVERAGE MISS LATENCY: - cycles
cpu3_ITLB COHERENCE INVALIDATIONS:          0
cpu3_ITLB COHERENCE WRITE-HIT OTHER-SHARER EVENTS:          0
cpu3_DTLB COHERENCE INVALIDATIONS:          0
cpu3_DTLB COHERENCE WRITE-HIT OTHER-SHARER EVENTS:          0
cpu2_STLB COHERENCE INVALIDATIONS:          0
cpu2_STLB COHERENCE WRITE-HIT OTHER-SHARER EVENTS:          0
cpu2_L2C COHERENCE INVALIDATIONS:          0
cpu2_L2C COHERENCE WRITE-HIT OTHER-SHARER EVENTS:          0
cpu2->cpu2_L1I TOTAL        ACCESS:  144702265 HIT:  144702265 MISS:          0 MSHR_MERGE:          0
cpu2->cpu2_L1I LOAD         ACCESS:  144702265 HIT:  144702265 MISS:          0 MSHR_MERGE:          0
cpu2->cpu2_L1I RFO          ACCESS:          0 HIT:          0 MISS:          0 MSHR_MERGE:          0
cpu2->cpu2_L1I PREFETCH     ACCESS:          0 HIT:          0 MISS:          0 MSHR_MERGE:          0
cpu2->cpu2_L1I WRITE        ACCESS:          0 HIT:          0 MISS:          0 MSHR_MERGE:          0
cpu2->cpu2_L1I TRANSLATION  ACCESS:          0 HIT:          0 MISS:          0 MSHR_MERGE:          0
cpu2->cpu2_L1I PREFETCH REQUESTED:          0 ISSUED:          0 USEFUL:          0 USELESS:          0
cpu2->cpu2_L1I AVERAGE MISS LATENCY: - cycles
cpu2_L1I COHERENCE INVALIDATIONS:          0
cpu2_L1I COHERENCE WRITE-HIT OTHER-SHARER EVENTS:          0
cpu2_L1D COHERENCE INVALIDATIONS:          0
cpu2_L1D COHERENCE WRITE-HIT OTHER-SHARER EVENTS:          0
cpu2->cpu2_ITLB TOTAL        ACCESS:  125880269 HIT:  125880269 MISS:          0 MSHR_MERGE:          0
cpu2->cpu2_ITLB LOAD         ACCESS:  125880269 HIT:  125880269 MISS:          0 MSHR_MERGE:          0
cpu2->cpu2_ITLB RFO          ACCESS:          0 HIT:          0 MISS:          0 MSHR_MERGE:          0
cpu2->cpu2_ITLB PREFETCH     ACCESS:          0 HIT:          0 MISS:          0 MSHR_MERGE:          0
cpu2->cpu2_ITLB WRITE        ACCESS:          0 HIT:          0 MISS:          0 MSHR_MERGE:          0
cpu2->cpu2_ITLB TRANSLATION  ACCESS:          0 HIT:          0 MISS:          0 MSHR_MERGE:          0
cpu2->cpu2_ITLB PREFETCH REQUESTED:          0 ISSUED:          0 USEFUL:          0 USELESS:          0
cpu2->cpu2_ITLB AVERAGE MISS LATENCY: - cycles
cpu2_ITLB COHERENCE INVALIDATIONS:          0
cpu2_ITLB COHERENCE WRITE-HIT OTHER-SHARER EVENTS:          0
cpu2_DTLB COHERENCE INVALIDATIONS:          0
cpu2_DTLB COHERENCE WRITE-HIT OTHER-SHARER EVENTS:          0
cpu1_STLB COHERENCE INVALIDATIONS:          0
cpu1_STLB COHERENCE WRITE-HIT OTHER-SHARER EVENTS:          0
cpu1_L2C COHERENCE INVALIDATIONS:          0
cpu1_L2C COHERENCE WRITE-HIT OTHER-SHARER EVENTS:          0
cpu1->cpu1_L1I TOTAL        ACCESS:  157378938 HIT:  157378938 MISS:          0 MSHR_MERGE:          0
cpu1->cpu1_L1I LOAD         ACCESS:  157378938 HIT:  157378938 MISS:          0 MSHR_MERGE:          0
cpu1->cpu1_L1I RFO          ACCESS:          0 HIT:          0 MISS:          0 MSHR_MERGE:          0
cpu1->cpu1_L1I PREFETCH     ACCESS:          0 HIT:          0 MISS:          0 MSHR_MERGE:          0
cpu1->cpu1_L1I WRITE        ACCESS:          0 HIT:          0 MISS:          0 MSHR_MERGE:          0
cpu1->cpu1_L1I TRANSLATION  ACCESS:          0 HIT:          0 MISS:          0 MSHR_MERGE:          0
cpu1->cpu1_L1I PREFETCH REQUESTED:          0 ISSUED:          0 USEFUL:          0 USELESS:          0
cpu1->cpu1_L1I AVERAGE MISS LATENCY: - cycles
cpu1_L1I COHERENCE INVALIDATIONS:          0
cpu1_L1I COHERENCE WRITE-HIT OTHER-SHARER EVENTS:          0
cpu1_L1D COHERENCE INVALIDATIONS:          0
cpu1_L1D COHERENCE WRITE-HIT OTHER-SHARER EVENTS:          0
cpu1->cpu1_ITLB TOTAL        ACCESS:  131315365 HIT:  131315365 MISS:          0 MSHR_MERGE:          0
cpu1->cpu1_ITLB LOAD         ACCESS:  131315365 HIT:  131315365 MISS:          0 MSHR_MERGE:          0
cpu1->cpu1_ITLB RFO          ACCESS:          0 HIT:          0 MISS:          0 MSHR_MERGE:          0
cpu1->cpu1_ITLB PREFETCH     ACCESS:          0 HIT:          0 MISS:          0 MSHR_MERGE:          0
cpu1->cpu1_ITLB WRITE        ACCESS:          0 HIT:          0 MISS:          0 MSHR_MERGE:          0
cpu1->cpu1_ITLB TRANSLATION  ACCESS:          0 HIT:          0 MISS:          0 MSHR_MERGE:          0
cpu1->cpu1_ITLB PREFETCH REQUESTED:          0 ISSUED:          0 USEFUL:          0 USELESS:          0
cpu1->cpu1_ITLB AVERAGE MISS LATENCY: - cycles
cpu1_ITLB COHERENCE INVALIDATIONS:          0
cpu1_ITLB COHERENCE WRITE-HIT OTHER-SHARER EVENTS:          0
cpu1_DTLB COHERENCE INVALIDATIONS:          0
cpu1_DTLB COHERENCE WRITE-HIT OTHER-SHARER EVENTS:          0
cpu0->cpu0_STLB TOTAL        ACCESS:    2220946 HIT:    2024747 MISS:     196199 MSHR_MERGE:          0
cpu0->cpu0_STLB LOAD         ACCESS:    2220946 HIT:    2024747 MISS:     196199 MSHR_MERGE:          0
cpu0->cpu0_STLB RFO          ACCESS:          0 HIT:          0 MISS:          0 MSHR_MERGE:          0
cpu0->cpu0_STLB PREFETCH     ACCESS:          0 HIT:          0 MISS:          0 MSHR_MERGE:          0
cpu0->cpu0_STLB WRITE        ACCESS:          0 HIT:          0 MISS:          0 MSHR_MERGE:          0
cpu0->cpu0_STLB TRANSLATION  ACCESS:          0 HIT:          0 MISS:          0 MSHR_MERGE:          0
cpu0->cpu0_STLB PREFETCH REQUESTED:          0 ISSUED:          0 USEFUL:          0 USELESS:          0
cpu0->cpu0_STLB AVERAGE MISS LATENCY: 382.9 cycles
cpu0_STLB COHERENCE INVALIDATIONS:          0
cpu0_STLB COHERENCE WRITE-HIT OTHER-SHARER EVENTS:          0
cpu0->cpu0_L2C TOTAL        ACCESS:    2352571 HIT:     411501 MISS:    1941070 MSHR_MERGE:          0
cpu0->cpu0_L2C LOAD         ACCESS:    1963778 HIT:     410221 MISS:    1553557 MSHR_MERGE:          0
cpu0->cpu0_L2C RFO          ACCESS:          0 HIT:          0 MISS:          0 MSHR_MERGE:          0
cpu0->cpu0_L2C PREFETCH     ACCESS:          0 HIT:          0 MISS:          0 MSHR_MERGE:          0
cpu0->cpu0_L2C WRITE        ACCESS:          0 HIT:          0 MISS:          0 MSHR_MERGE:          0
cpu0->cpu0_L2C TRANSLATION  ACCESS:     388793 HIT:       1280 MISS:     387513 MSHR_MERGE:          0
cpu0->cpu0_L2C PREFETCH REQUESTED:          0 ISSUED:          0 USEFUL:          0 USELESS:          0
cpu0->cpu0_L2C AVERAGE MISS LATENCY: 184.3 cycles
cpu0_L2C COHERENCE INVALIDATIONS:          0
cpu0_L2C COHERENCE WRITE-HIT OTHER-SHARER EVENTS:          0
cpu0->cpu0_L1I TOTAL        ACCESS:   33928848 HIT:   31764339 MISS:    2164509 MSHR_MERGE:     200732
cpu0->cpu0_L1I LOAD         ACCESS:   33928848 HIT:   31764339 MISS:    2164509 MSHR_MERGE:     200732
cpu0->cpu0_L1I RFO          ACCESS:          0 HIT:          0 MISS:          0 MSHR_MERGE:          0
cpu0->cpu0_L1I PREFETCH     ACCESS:          0 HIT:          0 MISS:          0 MSHR_MERGE:          0
cpu0->cpu0_L1I WRITE        ACCESS:          0 HIT:          0 MISS:          0 MSHR_MERGE:          0
cpu0->cpu0_L1I TRANSLATION  ACCESS:          0 HIT:          0 MISS:          0 MSHR_MERGE:          0
cpu0->cpu0_L1I PREFETCH REQUESTED:          0 ISSUED:          0 USEFUL:          0 USELESS:          0
cpu0->cpu0_L1I AVERAGE MISS LATENCY: 154.5 cycles
cpu0_L1I COHERENCE INVALIDATIONS:          0
cpu0_L1I COHERENCE WRITE-HIT OTHER-SHARER EVENTS:          0
cpu0->cpu0_L1D TOTAL        ACCESS:     392534 HIT:       3741 MISS:     388793 MSHR_MERGE:          0
cpu0->cpu0_L1D LOAD         ACCESS:          0 HIT:          0 MISS:          0 MSHR_MERGE:          0
cpu0->cpu0_L1D RFO          ACCESS:          0 HIT:          0 MISS:          0 MSHR_MERGE:          0
cpu0->cpu0_L1D PREFETCH     ACCESS:          0 HIT:          0 MISS:          0 MSHR_MERGE:          0
cpu0->cpu0_L1D WRITE        ACCESS:          0 HIT:          0 MISS:          0 MSHR_MERGE:          0
cpu0->cpu0_L1D TRANSLATION  ACCESS:     392534 HIT:       3741 MISS:     388793 MSHR_MERGE:          0
cpu0->cpu0_L1D PREFETCH REQUESTED:          0 ISSUED:          0 USEFUL:          0 USELESS:          0
cpu0->cpu0_L1D AVERAGE MISS LATENCY: 187.2 cycles
cpu0_L1D COHERENCE INVALIDATIONS:          0
cpu0_L1D COHERENCE WRITE-HIT OTHER-SHARER EVENTS:          0
cpu0->cpu0_ITLB TOTAL        ACCESS:   33397082 HIT:   31125086 MISS:    2271996 MSHR_MERGE:      51050
cpu0->cpu0_ITLB LOAD         ACCESS:   33397082 HIT:   31125086 MISS:    2271996 MSHR_MERGE:      51050
cpu0->cpu0_ITLB RFO          ACCESS:          0 HIT:          0 MISS:          0 MSHR_MERGE:          0
cpu0->cpu0_ITLB PREFETCH     ACCESS:          0 HIT:          0 MISS:          0 MSHR_MERGE:          0
cpu0->cpu0_ITLB WRITE        ACCESS:          0 HIT:          0 MISS:          0 MSHR_MERGE:          0
cpu0->cpu0_ITLB TRANSLATION  ACCESS:          0 HIT:          0 MISS:          0 MSHR_MERGE:          0
cpu0->cpu0_ITLB PREFETCH REQUESTED:          0 ISSUED:          0 USEFUL:          0 USELESS:          0
cpu0->cpu0_ITLB AVERAGE MISS LATENCY: 37.91 cycles
cpu0_ITLB COHERENCE INVALIDATIONS:          0
cpu0_ITLB COHERENCE WRITE-HIT OTHER-SHARER EVENTS:          0
cpu0_DTLB COHERENCE INVALIDATIONS:          0
cpu0_DTLB COHERENCE WRITE-HIT OTHER-SHARER EVENTS:          0
cpu0->LLC TOTAL        ACCESS:    1941070 HIT:     297363 MISS:    1643707 MSHR_MERGE:     423512
cpu0->LLC LOAD         ACCESS:    1553557 HIT:     217155 MISS:    1336402 MSHR_MERGE:     423512
cpu0->LLC RFO          ACCESS:          0 HIT:          0 MISS:          0 MSHR_MERGE:          0
cpu0->LLC PREFETCH     ACCESS:          0 HIT:          0 MISS:          0 MSHR_MERGE:          0
cpu0->LLC WRITE        ACCESS:          0 HIT:          0 MISS:          0 MSHR_MERGE:          0
cpu0->LLC TRANSLATION  ACCESS:     387513 HIT:      80208 MISS:     307305 MSHR_MERGE:          0
cpu0->LLC PREFETCH REQUESTED:          0 ISSUED:          0 USEFUL:          0 USELESS:          0
cpu0->LLC AVERAGE MISS LATENCY: 787.2 cycles
cpu4->LLC TOTAL        ACCESS:    6905426 HIT:    5549884 MISS:    1355542 MSHR_MERGE:          1
cpu4->LLC LOAD         ACCESS:     777843 HIT:      23045 MISS:     754798 MSHR_MERGE:          0
cpu4->LLC RFO          ACCESS:    3046283 HIT:    2750986 MISS:     295297 MSHR_MERGE:          1
cpu4->LLC PREFETCH     ACCESS:          0 HIT:          0 MISS:          0 MSHR_MERGE:          0
cpu4->LLC WRITE        ACCESS:    3081300 HIT:    2775853 MISS:     305447 MSHR_MERGE:          0
cpu4->LLC TRANSLATION  ACCESS:          0 HIT:          0 MISS:          0 MSHR_MERGE:          0
cpu4->LLC PREFETCH REQUESTED:          0 ISSUED:          0 USEFUL:          0 USELESS:          0
cpu4->LLC AVERAGE MISS LATENCY: 475.2 cycles
cpu5->LLC TOTAL        ACCESS:    1940696 HIT:     312663 MISS:    1628033 MSHR_MERGE:     825498
cpu5->LLC LOAD         ACCESS:    1552973 HIT:     238983 MISS:    1313990 MSHR_MERGE:     825498
cpu5->LLC RFO          ACCESS:          0 HIT:          0 MISS:          0 MSHR_MERGE:          0
cpu5->LLC PREFETCH     ACCESS:          0 HIT:          0 MISS:          0 MSHR_MERGE:          0
cpu5->LLC WRITE        ACCESS:          0 HIT:          0 MISS:          0 MSHR_MERGE:          0
cpu5->LLC TRANSLATION  ACCESS:     387723 HIT:      73680 MISS:     314043 MSHR_MERGE:          0
cpu5->LLC PREFETCH REQUESTED:          0 ISSUED:          0 USEFUL:          0 USELESS:          0
cpu5->LLC AVERAGE MISS LATENCY: 534.7 cycles
LLC COHERENCE INVALIDATIONS:     201245
LLC COHERENCE WRITE-HIT OTHER-SHARER EVENTS:     100897
LLC SHARER HIST TOTAL:       54052320
LLC SHARER HIST[ 1]:       49030613  (90.710%)
LLC SHARER HIST[ 2]:        4254832  ( 7.872%)
LLC SHARER HIST[ 3]:         718557  ( 1.329%)
LLC SHARER HIST[ 6]:           7223  ( 0.013%)
LLC SHARER HIST[ 7]:          29494  ( 0.055%)
LLC SHARER HIST[ 8]:          11601  ( 0.021%)

DRAM Statistics

Channel 0 RQ ROW_BUFFER_HIT:      44920
  ROW_BUFFER_MISS:    3027679
  AVG DBUS CONGESTED CYCLE: 12.95
Channel 0 WQ ROW_BUFFER_HIT:     110452
  ROW_BUFFER_MISS:     196838
  FULL:          0
Channel 0 REFRESHES ISSUED:      22820

VMEM ALIASED FILLS (cross-CPU shared-page hits): 302679
