nohup: ignoring input
[VMEM] WARNING: physical memory size is smaller than virtual memory size.

*** ChampSim Multicore Out-of-Order Simulator ***
Warmup Instructions: 50000000
Simulation Instructions: 100000000
Number of CPUs: 8
Page size: 4096

Off-chip DRAM Size: 16 GiB Channels: 1 Width: 64-bit Data Rate: 3205 MT/s
*** Reached end of trace: (0, "/home/harshraj/COALESCE-Hashed-Perceptron-Cache-Replacement-Policy/simulator/traces/canneal_big4.champsimtrace")
*** Reached end of trace: (7, "/home/harshraj/COALESCE-Hashed-Perceptron-Cache-Replacement-Policy/simulator/traces/canneal_big4.champsimtrace")
*** Reached end of trace: (4, "/home/harshraj/COALESCE-Hashed-Perceptron-Cache-Replacement-Policy/simulator/traces/canneal_big3.champsimtrace")
*** Reached end of trace: (6, "/home/harshraj/COALESCE-Hashed-Perceptron-Cache-Replacement-Policy/simulator/traces/canneal_big3.champsimtrace")
*** Reached end of trace: (5, "/home/harshraj/COALESCE-Hashed-Perceptron-Cache-Replacement-Policy/simulator/traces/canneal_big2.champsimtrace")
*** Reached end of trace: (3, "/home/harshraj/COALESCE-Hashed-Perceptron-Cache-Replacement-Policy/simulator/traces/canneal_big2.champsimtrace")
*** Reached end of trace: (1, "/home/harshraj/COALESCE-Hashed-Perceptron-Cache-Replacement-Policy/simulator/traces/canneal_big0.champsimtrace")
*** Reached end of trace: (0, "/home/harshraj/COALESCE-Hashed-Perceptron-Cache-Replacement-Policy/simulator/traces/canneal_big4.champsimtrace")
*** Reached end of trace: (7, "/home/harshraj/COALESCE-Hashed-Perceptron-Cache-Replacement-Policy/simulator/traces/canneal_big4.champsimtrace")
*** Reached end of trace: (4, "/home/harshraj/COALESCE-Hashed-Perceptron-Cache-Replacement-Policy/simulator/traces/canneal_big3.champsimtrace")
*** Reached end of trace: (6, "/home/harshraj/COALESCE-Hashed-Perceptron-Cache-Replacement-Policy/simulator/traces/canneal_big3.champsimtrace")
Heartbeat CPU 0 instructions: 10000001 cycles: 2503428 heartbeat IPC: 3.995 cumulative IPC: 3.995 (Simulation time: 00 hr 05 min 15 sec)
Heartbeat CPU 7 instructions: 10000001 cycles: 2503437 heartbeat IPC: 3.995 cumulative IPC: 3.995 (Simulation time: 00 hr 05 min 15 sec)
Heartbeat CPU 4 instructions: 10000001 cycles: 2503455 heartbeat IPC: 3.994 cumulative IPC: 3.994 (Simulation time: 00 hr 05 min 15 sec)
Heartbeat CPU 6 instructions: 10000001 cycles: 2503457 heartbeat IPC: 3.994 cumulative IPC: 3.994 (Simulation time: 00 hr 05 min 15 sec)
*** Reached end of trace: (5, "/home/harshraj/COALESCE-Hashed-Perceptron-Cache-Replacement-Policy/simulator/traces/canneal_big2.champsimtrace")
*** Reached end of trace: (3, "/home/harshraj/COALESCE-Hashed-Perceptron-Cache-Replacement-Policy/simulator/traces/canneal_big2.champsimtrace")
Heartbeat CPU 5 instructions: 10000001 cycles: 2503805 heartbeat IPC: 3.994 cumulative IPC: 3.994 (Simulation time: 00 hr 05 min 15 sec)
Heartbeat CPU 3 instructions: 10000001 cycles: 2503809 heartbeat IPC: 3.994 cumulative IPC: 3.994 (Simulation time: 00 hr 05 min 15 sec)
*** Reached end of trace: (0, "/home/harshraj/COALESCE-Hashed-Perceptron-Cache-Replacement-Policy/simulator/traces/canneal_big4.champsimtrace")
*** Reached end of trace: (7, "/home/harshraj/COALESCE-Hashed-Perceptron-Cache-Replacement-Policy/simulator/traces/canneal_big4.champsimtrace")
*** Reached end of trace: (4, "/home/harshraj/COALESCE-Hashed-Perceptron-Cache-Replacement-Policy/simulator/traces/canneal_big3.champsimtrace")
*** Reached end of trace: (6, "/home/harshraj/COALESCE-Hashed-Perceptron-Cache-Replacement-Policy/simulator/traces/canneal_big3.champsimtrace")
*** Reached end of trace: (5, "/home/harshraj/COALESCE-Hashed-Perceptron-Cache-Replacement-Policy/simulator/traces/canneal_big2.champsimtrace")
*** Reached end of trace: (3, "/home/harshraj/COALESCE-Hashed-Perceptron-Cache-Replacement-Policy/simulator/traces/canneal_big2.champsimtrace")
*** Reached end of trace: (1, "/home/harshraj/COALESCE-Hashed-Perceptron-Cache-Replacement-Policy/simulator/traces/canneal_big0.champsimtrace")
Heartbeat CPU 1 instructions: 10000003 cycles: 4033552 heartbeat IPC: 2.479 cumulative IPC: 2.479 (Simulation time: 00 hr 08 min 31 sec)
*** Reached end of trace: (2, "/home/harshraj/COALESCE-Hashed-Perceptron-Cache-Replacement-Policy/simulator/traces/canneal_big1.champsimtrace")
*** Reached end of trace: (0, "/home/harshraj/COALESCE-Hashed-Perceptron-Cache-Replacement-Policy/simulator/traces/canneal_big4.champsimtrace")
*** Reached end of trace: (7, "/home/harshraj/COALESCE-Hashed-Perceptron-Cache-Replacement-Policy/simulator/traces/canneal_big4.champsimtrace")
*** Reached end of trace: (4, "/home/harshraj/COALESCE-Hashed-Perceptron-Cache-Replacement-Policy/simulator/traces/canneal_big3.champsimtrace")
*** Reached end of trace: (6, "/home/harshraj/COALESCE-Hashed-Perceptron-Cache-Replacement-Policy/simulator/traces/canneal_big3.champsimtrace")
Heartbeat CPU 0 instructions: 20000001 cycles: 5003428 heartbeat IPC: 4 cumulative IPC: 3.997 (Simulation time: 00 hr 10 min 39 sec)
Heartbeat CPU 7 instructions: 20000001 cycles: 5003437 heartbeat IPC: 4 cumulative IPC: 3.997 (Simulation time: 00 hr 10 min 39 sec)
Heartbeat CPU 4 instructions: 20000001 cycles: 5003455 heartbeat IPC: 4 cumulative IPC: 3.997 (Simulation time: 00 hr 10 min 39 sec)
Heartbeat CPU 6 instructions: 20000001 cycles: 5003457 heartbeat IPC: 4 cumulative IPC: 3.997 (Simulation time: 00 hr 10 min 39 sec)
*** Reached end of trace: (5, "/home/harshraj/COALESCE-Hashed-Perceptron-Cache-Replacement-Policy/simulator/traces/canneal_big2.champsimtrace")
*** Reached end of trace: (3, "/home/harshraj/COALESCE-Hashed-Perceptron-Cache-Replacement-Policy/simulator/traces/canneal_big2.champsimtrace")
Heartbeat CPU 5 instructions: 20000001 cycles: 5003805 heartbeat IPC: 4 cumulative IPC: 3.997 (Simulation time: 00 hr 10 min 39 sec)
Heartbeat CPU 3 instructions: 20000001 cycles: 5003809 heartbeat IPC: 4 cumulative IPC: 3.997 (Simulation time: 00 hr 10 min 39 sec)
*** Reached end of trace: (1, "/home/harshraj/COALESCE-Hashed-Perceptron-Cache-Replacement-Policy/simulator/traces/canneal_big0.champsimtrace")
*** Reached end of trace: (0, "/home/harshraj/COALESCE-Hashed-Perceptron-Cache-Replacement-Policy/simulator/traces/canneal_big4.champsimtrace")
*** Reached end of trace: (7, "/home/harshraj/COALESCE-Hashed-Perceptron-Cache-Replacement-Policy/simulator/traces/canneal_big4.champsimtrace")
*** Reached end of trace: (4, "/home/harshraj/COALESCE-Hashed-Perceptron-Cache-Replacement-Policy/simulator/traces/canneal_big3.champsimtrace")
*** Reached end of trace: (6, "/home/harshraj/COALESCE-Hashed-Perceptron-Cache-Replacement-Policy/simulator/traces/canneal_big3.champsimtrace")
*** Reached end of trace: (5, "/home/harshraj/COALESCE-Hashed-Perceptron-Cache-Replacement-Policy/simulator/traces/canneal_big2.champsimtrace")
*** Reached end of trace: (3, "/home/harshraj/COALESCE-Hashed-Perceptron-Cache-Replacement-Policy/simulator/traces/canneal_big2.champsimtrace")
*** Reached end of trace: (0, "/home/harshraj/COALESCE-Hashed-Perceptron-Cache-Replacement-Policy/simulator/traces/canneal_big4.champsimtrace")
*** Reached end of trace: (7, "/home/harshraj/COALESCE-Hashed-Perceptron-Cache-Replacement-Policy/simulator/traces/canneal_big4.champsimtrace")
*** Reached end of trace: (4, "/home/harshraj/COALESCE-Hashed-Perceptron-Cache-Replacement-Policy/simulator/traces/canneal_big3.champsimtrace")
*** Reached end of trace: (6, "/home/harshraj/COALESCE-Hashed-Perceptron-Cache-Replacement-Policy/simulator/traces/canneal_big3.champsimtrace")
Heartbeat CPU 0 instructions: 30000001 cycles: 7503428 heartbeat IPC: 4 cumulative IPC: 3.998 (Simulation time: 00 hr 16 min 10 sec)
Heartbeat CPU 7 instructions: 30000001 cycles: 7503437 heartbeat IPC: 4 cumulative IPC: 3.998 (Simulation time: 00 hr 16 min 10 sec)
Heartbeat CPU 4 instructions: 30000001 cycles: 7503455 heartbeat IPC: 4 cumulative IPC: 3.998 (Simulation time: 00 hr 16 min 10 sec)
Heartbeat CPU 6 instructions: 30000001 cycles: 7503457 heartbeat IPC: 4 cumulative IPC: 3.998 (Simulation time: 00 hr 16 min 10 sec)
*** Reached end of trace: (5, "/home/harshraj/COALESCE-Hashed-Perceptron-Cache-Replacement-Policy/simulator/traces/canneal_big2.champsimtrace")
*** Reached end of trace: (3, "/home/harshraj/COALESCE-Hashed-Perceptron-Cache-Replacement-Policy/simulator/traces/canneal_big2.champsimtrace")
Heartbeat CPU 5 instructions: 30000001 cycles: 7503805 heartbeat IPC: 4 cumulative IPC: 3.998 (Simulation time: 00 hr 16 min 10 sec)
Heartbeat CPU 3 instructions: 30000001 cycles: 7503809 heartbeat IPC: 4 cumulative IPC: 3.998 (Simulation time: 00 hr 16 min 10 sec)
*** Reached end of trace: (2, "/home/harshraj/COALESCE-Hashed-Perceptron-Cache-Replacement-Policy/simulator/traces/canneal_big1.champsimtrace")
Heartbeat CPU 2 instructions: 10000002 cycles: 7843786 heartbeat IPC: 1.275 cumulative IPC: 1.275 (Simulation time: 00 hr 16 min 54 sec)
*** Reached end of trace: (1, "/home/harshraj/COALESCE-Hashed-Perceptron-Cache-Replacement-Policy/simulator/traces/canneal_big0.champsimtrace")
Heartbeat CPU 1 instructions: 20000006 cycles: 7887731 heartbeat IPC: 2.595 cumulative IPC: 2.536 (Simulation time: 00 hr 17 min 00 sec)
*** Reached end of trace: (0, "/home/harshraj/COALESCE-Hashed-Perceptron-Cache-Replacement-Policy/simulator/traces/canneal_big4.champsimtrace")
*** Reached end of trace: (7, "/home/harshraj/COALESCE-Hashed-Perceptron-Cache-Replacement-Policy/simulator/traces/canneal_big4.champsimtrace")
*** Reached end of trace: (4, "/home/harshraj/COALESCE-Hashed-Perceptron-Cache-Replacement-Policy/simulator/traces/canneal_big3.champsimtrace")
*** Reached end of trace: (6, "/home/harshraj/COALESCE-Hashed-Perceptron-Cache-Replacement-Policy/simulator/traces/canneal_big3.champsimtrace")
*** Reached end of trace: (5, "/home/harshraj/COALESCE-Hashed-Perceptron-Cache-Replacement-Policy/simulator/traces/canneal_big2.champsimtrace")
*** Reached end of trace: (3, "/home/harshraj/COALESCE-Hashed-Perceptron-Cache-Replacement-Policy/simulator/traces/canneal_big2.champsimtrace")
*** Reached end of trace: (1, "/home/harshraj/COALESCE-Hashed-Perceptron-Cache-Replacement-Policy/simulator/traces/canneal_big0.champsimtrace")
*** Reached end of trace: (0, "/home/harshraj/COALESCE-Hashed-Perceptron-Cache-Replacement-Policy/simulator/traces/canneal_big4.champsimtrace")
*** Reached end of trace: (7, "/home/harshraj/COALESCE-Hashed-Perceptron-Cache-Replacement-Policy/simulator/traces/canneal_big4.champsimtrace")
*** Reached end of trace: (4, "/home/harshraj/COALESCE-Hashed-Perceptron-Cache-Replacement-Policy/simulator/traces/canneal_big3.champsimtrace")
*** Reached end of trace: (6, "/home/harshraj/COALESCE-Hashed-Perceptron-Cache-Replacement-Policy/simulator/traces/canneal_big3.champsimtrace")
Heartbeat CPU 0 instructions: 40000001 cycles: 10003428 heartbeat IPC: 4 cumulative IPC: 3.999 (Simulation time: 00 hr 21 min 39 sec)
Heartbeat CPU 7 instructions: 40000001 cycles: 10003437 heartbeat IPC: 4 cumulative IPC: 3.999 (Simulation time: 00 hr 21 min 39 sec)
Heartbeat CPU 4 instructions: 40000001 cycles: 10003455 heartbeat IPC: 4 cumulative IPC: 3.999 (Simulation time: 00 hr 21 min 39 sec)
Heartbeat CPU 6 instructions: 40000001 cycles: 10003457 heartbeat IPC: 4 cumulative IPC: 3.999 (Simulation time: 00 hr 21 min 39 sec)
*** Reached end of trace: (5, "/home/harshraj/COALESCE-Hashed-Perceptron-Cache-Replacement-Policy/simulator/traces/canneal_big2.champsimtrace")
*** Reached end of trace: (3, "/home/harshraj/COALESCE-Hashed-Perceptron-Cache-Replacement-Policy/simulator/traces/canneal_big2.champsimtrace")
Heartbeat CPU 5 instructions: 40000001 cycles: 10003805 heartbeat IPC: 4 cumulative IPC: 3.998 (Simulation time: 00 hr 21 min 39 sec)
Heartbeat CPU 3 instructions: 40000001 cycles: 10003809 heartbeat IPC: 4 cumulative IPC: 3.998 (Simulation time: 00 hr 21 min 39 sec)
*** Reached end of trace: (2, "/home/harshraj/COALESCE-Hashed-Perceptron-Cache-Replacement-Policy/simulator/traces/canneal_big1.champsimtrace")
*** Reached end of trace: (0, "/home/harshraj/COALESCE-Hashed-Perceptron-Cache-Replacement-Policy/simulator/traces/canneal_big4.champsimtrace")
*** Reached end of trace: (7, "/home/harshraj/COALESCE-Hashed-Perceptron-Cache-Replacement-Policy/simulator/traces/canneal_big4.champsimtrace")
*** Reached end of trace: (4, "/home/harshraj/COALESCE-Hashed-Perceptron-Cache-Replacement-Policy/simulator/traces/canneal_big3.champsimtrace")
*** Reached end of trace: (6, "/home/harshraj/COALESCE-Hashed-Perceptron-Cache-Replacement-Policy/simulator/traces/canneal_big3.champsimtrace")
*** Reached end of trace: (5, "/home/harshraj/COALESCE-Hashed-Perceptron-Cache-Replacement-Policy/simulator/traces/canneal_big2.champsimtrace")
*** Reached end of trace: (3, "/home/harshraj/COALESCE-Hashed-Perceptron-Cache-Replacement-Policy/simulator/traces/canneal_big2.champsimtrace")
*** Reached end of trace: (1, "/home/harshraj/COALESCE-Hashed-Perceptron-Cache-Replacement-Policy/simulator/traces/canneal_big0.champsimtrace")
Heartbeat CPU 1 instructions: 30000009 cycles: 11741852 heartbeat IPC: 2.595 cumulative IPC: 2.555 (Simulation time: 00 hr 25 min 29 sec)
*** Reached end of trace: (0, "/home/harshraj/COALESCE-Hashed-Perceptron-Cache-Replacement-Policy/simulator/traces/canneal_big4.champsimtrace")
*** Reached end of trace: (7, "/home/harshraj/COALESCE-Hashed-Perceptron-Cache-Replacement-Policy/simulator/traces/canneal_big4.champsimtrace")
*** Reached end of trace: (4, "/home/harshraj/COALESCE-Hashed-Perceptron-Cache-Replacement-Policy/simulator/traces/canneal_big3.champsimtrace")
*** Reached end of trace: (6, "/home/harshraj/COALESCE-Hashed-Perceptron-Cache-Replacement-Policy/simulator/traces/canneal_big3.champsimtrace")
Heartbeat CPU 0 instructions: 50000001 cycles: 12503428 heartbeat IPC: 4 cumulative IPC: 3.999 (Simulation time: 00 hr 27 min 11 sec)
Warmup finished CPU 0 instructions: 50000001 cycles: 12503428 cumulative IPC: 3.999 (Simulation time: 00 hr 27 min 11 sec)
Heartbeat CPU 7 instructions: 50000001 cycles: 12503437 heartbeat IPC: 4 cumulative IPC: 3.999 (Simulation time: 00 hr 27 min 11 sec)
Warmup finished CPU 7 instructions: 50000001 cycles: 12503437 cumulative IPC: 3.999 (Simulation time: 00 hr 27 min 11 sec)
Heartbeat CPU 4 instructions: 50000001 cycles: 12503455 heartbeat IPC: 4 cumulative IPC: 3.999 (Simulation time: 00 hr 27 min 11 sec)
Warmup finished CPU 4 instructions: 50000001 cycles: 12503455 cumulative IPC: 3.999 (Simulation time: 00 hr 27 min 11 sec)
Heartbeat CPU 6 instructions: 50000001 cycles: 12503457 heartbeat IPC: 4 cumulative IPC: 3.999 (Simulation time: 00 hr 27 min 11 sec)
Warmup finished CPU 6 instructions: 50000001 cycles: 12503457 cumulative IPC: 3.999 (Simulation time: 00 hr 27 min 11 sec)
*** Reached end of trace: (5, "/home/harshraj/COALESCE-Hashed-Perceptron-Cache-Replacement-Policy/simulator/traces/canneal_big2.champsimtrace")
*** Reached end of trace: (3, "/home/harshraj/COALESCE-Hashed-Perceptron-Cache-Replacement-Policy/simulator/traces/canneal_big2.champsimtrace")
Heartbeat CPU 5 instructions: 50000001 cycles: 12503805 heartbeat IPC: 4 cumulative IPC: 3.999 (Simulation time: 00 hr 27 min 11 sec)
Warmup finished CPU 5 instructions: 50000001 cycles: 12503805 cumulative IPC: 3.999 (Simulation time: 00 hr 27 min 11 sec)
Heartbeat CPU 3 instructions: 50000001 cycles: 12503809 heartbeat IPC: 4 cumulative IPC: 3.999 (Simulation time: 00 hr 27 min 11 sec)
Warmup finished CPU 3 instructions: 50000001 cycles: 12503809 cumulative IPC: 3.999 (Simulation time: 00 hr 27 min 11 sec)
*** Reached end of trace: (2, "/home/harshraj/COALESCE-Hashed-Perceptron-Cache-Replacement-Policy/simulator/traces/canneal_big1.champsimtrace")
Heartbeat CPU 2 instructions: 20000004 cycles: 13548505 heartbeat IPC: 1.753 cumulative IPC: 1.476 (Simulation time: 00 hr 29 min 28 sec)
*** Reached end of trace: (1, "/home/harshraj/COALESCE-Hashed-Perceptron-Cache-Replacement-Policy/simulator/traces/canneal_big0.champsimtrace")
*** Reached end of trace: (0, "/home/harshraj/COALESCE-Hashed-Perceptron-Cache-Replacement-Policy/simulator/traces/canneal_big4.champsimtrace")
*** Reached end of trace: (7, "/home/harshraj/COALESCE-Hashed-Perceptron-Cache-Replacement-Policy/simulator/traces/canneal_big4.champsimtrace")
*** Reached end of trace: (4, "/home/harshraj/COALESCE-Hashed-Perceptron-Cache-Replacement-Policy/simulator/traces/canneal_big3.champsimtrace")
*** Reached end of trace: (6, "/home/harshraj/COALESCE-Hashed-Perceptron-Cache-Replacement-Policy/simulator/traces/canneal_big3.champsimtrace")
*** Reached end of trace: (5, "/home/harshraj/COALESCE-Hashed-Perceptron-Cache-Replacement-Policy/simulator/traces/canneal_big2.champsimtrace")
*** Reached end of trace: (3, "/home/harshraj/COALESCE-Hashed-Perceptron-Cache-Replacement-Policy/simulator/traces/canneal_big2.champsimtrace")
*** Reached end of trace: (0, "/home/harshraj/COALESCE-Hashed-Perceptron-Cache-Replacement-Policy/simulator/traces/canneal_big4.champsimtrace")
*** Reached end of trace: (7, "/home/harshraj/COALESCE-Hashed-Perceptron-Cache-Replacement-Policy/simulator/traces/canneal_big4.champsimtrace")
*** Reached end of trace: (4, "/home/harshraj/COALESCE-Hashed-Perceptron-Cache-Replacement-Policy/simulator/traces/canneal_big3.champsimtrace")
*** Reached end of trace: (6, "/home/harshraj/COALESCE-Hashed-Perceptron-Cache-Replacement-Policy/simulator/traces/canneal_big3.champsimtrace")
Heartbeat CPU 0 instructions: 60000001 cycles: 15003428 heartbeat IPC: 4 cumulative IPC: 3.999 (Simulation time: 00 hr 32 min 40 sec)
Heartbeat CPU 7 instructions: 60000001 cycles: 15003437 heartbeat IPC: 4 cumulative IPC: 3.999 (Simulation time: 00 hr 32 min 40 sec)
Heartbeat CPU 4 instructions: 60000001 cycles: 15003455 heartbeat IPC: 4 cumulative IPC: 3.999 (Simulation time: 00 hr 32 min 40 sec)
Heartbeat CPU 6 instructions: 60000001 cycles: 15003457 heartbeat IPC: 4 cumulative IPC: 3.999 (Simulation time: 00 hr 32 min 40 sec)
*** Reached end of trace: (5, "/home/harshraj/COALESCE-Hashed-Perceptron-Cache-Replacement-Policy/simulator/traces/canneal_big2.champsimtrace")
*** Reached end of trace: (3, "/home/harshraj/COALESCE-Hashed-Perceptron-Cache-Replacement-Policy/simulator/traces/canneal_big2.champsimtrace")
Heartbeat CPU 5 instructions: 60000001 cycles: 15003805 heartbeat IPC: 4 cumulative IPC: 3.999 (Simulation time: 00 hr 32 min 40 sec)
Heartbeat CPU 3 instructions: 60000001 cycles: 15003809 heartbeat IPC: 4 cumulative IPC: 3.999 (Simulation time: 00 hr 32 min 40 sec)
*** Reached end of trace: (1, "/home/harshraj/COALESCE-Hashed-Perceptron-Cache-Replacement-Policy/simulator/traces/canneal_big0.champsimtrace")
Heartbeat CPU 1 instructions: 40000012 cycles: 15595973 heartbeat IPC: 2.595 cumulative IPC: 2.565 (Simulation time: 00 hr 33 min 58 sec)
*** Reached end of trace: (0, "/home/harshraj/COALESCE-Hashed-Perceptron-Cache-Replacement-Policy/simulator/traces/canneal_big4.champsimtrace")
*** Reached end of trace: (7, "/home/harshraj/COALESCE-Hashed-Perceptron-Cache-Replacement-Policy/simulator/traces/canneal_big4.champsimtrace")
*** Reached end of trace: (4, "/home/harshraj/COALESCE-Hashed-Perceptron-Cache-Replacement-Policy/simulator/traces/canneal_big3.champsimtrace")
*** Reached end of trace: (6, "/home/harshraj/COALESCE-Hashed-Perceptron-Cache-Replacement-Policy/simulator/traces/canneal_big3.champsimtrace")
*** Reached end of trace: (5, "/home/harshraj/COALESCE-Hashed-Perceptron-Cache-Replacement-Policy/simulator/traces/canneal_big2.champsimtrace")
*** Reached end of trace: (3, "/home/harshraj/COALESCE-Hashed-Perceptron-Cache-Replacement-Policy/simulator/traces/canneal_big2.champsimtrace")
*** Reached end of trace: (2, "/home/harshraj/COALESCE-Hashed-Perceptron-Cache-Replacement-Policy/simulator/traces/canneal_big1.champsimtrace")
*** Reached end of trace: (0, "/home/harshraj/COALESCE-Hashed-Perceptron-Cache-Replacement-Policy/simulator/traces/canneal_big4.champsimtrace")
*** Reached end of trace: (7, "/home/harshraj/COALESCE-Hashed-Perceptron-Cache-Replacement-Policy/simulator/traces/canneal_big4.champsimtrace")
*** Reached end of trace: (4, "/home/harshraj/COALESCE-Hashed-Perceptron-Cache-Replacement-Policy/simulator/traces/canneal_big3.champsimtrace")
*** Reached end of trace: (6, "/home/harshraj/COALESCE-Hashed-Perceptron-Cache-Replacement-Policy/simulator/traces/canneal_big3.champsimtrace")
Heartbeat CPU 0 instructions: 70000001 cycles: 17503428 heartbeat IPC: 4 cumulative IPC: 3.999 (Simulation time: 00 hr 38 min 09 sec)
Heartbeat CPU 7 instructions: 70000001 cycles: 17503437 heartbeat IPC: 4 cumulative IPC: 3.999 (Simulation time: 00 hr 38 min 09 sec)
Heartbeat CPU 4 instructions: 70000001 cycles: 17503455 heartbeat IPC: 4 cumulative IPC: 3.999 (Simulation time: 00 hr 38 min 09 sec)
Heartbeat CPU 6 instructions: 70000001 cycles: 17503457 heartbeat IPC: 4 cumulative IPC: 3.999 (Simulation time: 00 hr 38 min 09 sec)
*** Reached end of trace: (5, "/home/harshraj/COALESCE-Hashed-Perceptron-Cache-Replacement-Policy/simulator/traces/canneal_big2.champsimtrace")
*** Reached end of trace: (3, "/home/harshraj/COALESCE-Hashed-Perceptron-Cache-Replacement-Policy/simulator/traces/canneal_big2.champsimtrace")
Heartbeat CPU 5 instructions: 70000001 cycles: 17503805 heartbeat IPC: 4 cumulative IPC: 3.999 (Simulation time: 00 hr 38 min 09 sec)
Heartbeat CPU 3 instructions: 70000001 cycles: 17503809 heartbeat IPC: 4 cumulative IPC: 3.999 (Simulation time: 00 hr 38 min 09 sec)
*** Reached end of trace: (1, "/home/harshraj/COALESCE-Hashed-Perceptron-Cache-Replacement-Policy/simulator/traces/canneal_big0.champsimtrace")
*** Reached end of trace: (0, "/home/harshraj/COALESCE-Hashed-Perceptron-Cache-Replacement-Policy/simulator/traces/canneal_big4.champsimtrace")
*** Reached end of trace: (7, "/home/harshraj/COALESCE-Hashed-Perceptron-Cache-Replacement-Policy/simulator/traces/canneal_big4.champsimtrace")
*** Reached end of trace: (4, "/home/harshraj/COALESCE-Hashed-Perceptron-Cache-Replacement-Policy/simulator/traces/canneal_big3.champsimtrace")
*** Reached end of trace: (6, "/home/harshraj/COALESCE-Hashed-Perceptron-Cache-Replacement-Policy/simulator/traces/canneal_big3.champsimtrace")
*** Reached end of trace: (5, "/home/harshraj/COALESCE-Hashed-Perceptron-Cache-Replacement-Policy/simulator/traces/canneal_big2.champsimtrace")
*** Reached end of trace: (3, "/home/harshraj/COALESCE-Hashed-Perceptron-Cache-Replacement-Policy/simulator/traces/canneal_big2.champsimtrace")
*** Reached end of trace: (2, "/home/harshraj/COALESCE-Hashed-Perceptron-Cache-Replacement-Policy/simulator/traces/canneal_big1.champsimtrace")
Heartbeat CPU 2 instructions: 30000004 cycles: 19253206 heartbeat IPC: 1.753 cumulative IPC: 1.558 (Simulation time: 00 hr 42 min 01 sec)
*** Reached end of trace: (1, "/home/harshraj/COALESCE-Hashed-Perceptron-Cache-Replacement-Policy/simulator/traces/canneal_big0.champsimtrace")
Warmup finished CPU 1 instructions: 50000000 cycles: 19450121 cumulative IPC: 2.571 (Simulation time: 00 hr 42 min 26 sec)
Heartbeat CPU 1 instructions: 50000015 cycles: 19450124 heartbeat IPC: 2.595 cumulative IPC: 2.571 (Simulation time: 00 hr 42 min 26 sec)
*** Reached end of trace: (0, "/home/harshraj/COALESCE-Hashed-Perceptron-Cache-Replacement-Policy/simulator/traces/canneal_big4.champsimtrace")
*** Reached end of trace: (7, "/home/harshraj/COALESCE-Hashed-Perceptron-Cache-Replacement-Policy/simulator/traces/canneal_big4.champsimtrace")
*** Reached end of trace: (4, "/home/harshraj/COALESCE-Hashed-Perceptron-Cache-Replacement-Policy/simulator/traces/canneal_big3.champsimtrace")
*** Reached end of trace: (6, "/home/harshraj/COALESCE-Hashed-Perceptron-Cache-Replacement-Policy/simulator/traces/canneal_big3.champsimtrace")
Heartbeat CPU 0 instructions: 80000001 cycles: 20003428 heartbeat IPC: 4 cumulative IPC: 3.999 (Simulation time: 00 hr 43 min 41 sec)
Heartbeat CPU 7 instructions: 80000001 cycles: 20003437 heartbeat IPC: 4 cumulative IPC: 3.999 (Simulation time: 00 hr 43 min 41 sec)
Heartbeat CPU 4 instructions: 80000001 cycles: 20003455 heartbeat IPC: 4 cumulative IPC: 3.999 (Simulation time: 00 hr 43 min 41 sec)
Heartbeat CPU 6 instructions: 80000001 cycles: 20003457 heartbeat IPC: 4 cumulative IPC: 3.999 (Simulation time: 00 hr 43 min 41 sec)
*** Reached end of trace: (5, "/home/harshraj/COALESCE-Hashed-Perceptron-Cache-Replacement-Policy/simulator/traces/canneal_big2.champsimtrace")
*** Reached end of trace: (3, "/home/harshraj/COALESCE-Hashed-Perceptron-Cache-Replacement-Policy/simulator/traces/canneal_big2.champsimtrace")
Heartbeat CPU 5 instructions: 80000001 cycles: 20003805 heartbeat IPC: 4 cumulative IPC: 3.999 (Simulation time: 00 hr 43 min 41 sec)
Heartbeat CPU 3 instructions: 80000001 cycles: 20003809 heartbeat IPC: 4 cumulative IPC: 3.999 (Simulation time: 00 hr 43 min 41 sec)
*** Reached end of trace: (0, "/home/harshraj/COALESCE-Hashed-Perceptron-Cache-Replacement-Policy/simulator/traces/canneal_big4.champsimtrace")
*** Reached end of trace: (7, "/home/harshraj/COALESCE-Hashed-Perceptron-Cache-Replacement-Policy/simulator/traces/canneal_big4.champsimtrace")
*** Reached end of trace: (4, "/home/harshraj/COALESCE-Hashed-Perceptron-Cache-Replacement-Policy/simulator/traces/canneal_big3.champsimtrace")
*** Reached end of trace: (6, "/home/harshraj/COALESCE-Hashed-Perceptron-Cache-Replacement-Policy/simulator/traces/canneal_big3.champsimtrace")
*** Reached end of trace: (5, "/home/harshraj/COALESCE-Hashed-Perceptron-Cache-Replacement-Policy/simulator/traces/canneal_big2.champsimtrace")
*** Reached end of trace: (3, "/home/harshraj/COALESCE-Hashed-Perceptron-Cache-Replacement-Policy/simulator/traces/canneal_big2.champsimtrace")
*** Reached end of trace: (1, "/home/harshraj/COALESCE-Hashed-Perceptron-Cache-Replacement-Policy/simulator/traces/canneal_big0.champsimtrace")
*** Reached end of trace: (2, "/home/harshraj/COALESCE-Hashed-Perceptron-Cache-Replacement-Policy/simulator/traces/canneal_big1.champsimtrace")
*** Reached end of trace: (0, "/home/harshraj/COALESCE-Hashed-Perceptron-Cache-Replacement-Policy/simulator/traces/canneal_big4.champsimtrace")
*** Reached end of trace: (7, "/home/harshraj/COALESCE-Hashed-Perceptron-Cache-Replacement-Policy/simulator/traces/canneal_big4.champsimtrace")
*** Reached end of trace: (4, "/home/harshraj/COALESCE-Hashed-Perceptron-Cache-Replacement-Policy/simulator/traces/canneal_big3.champsimtrace")
*** Reached end of trace: (6, "/home/harshraj/COALESCE-Hashed-Perceptron-Cache-Replacement-Policy/simulator/traces/canneal_big3.champsimtrace")
Heartbeat CPU 0 instructions: 90000001 cycles: 22503428 heartbeat IPC: 4 cumulative IPC: 3.999 (Simulation time: 00 hr 49 min 10 sec)
Heartbeat CPU 7 instructions: 90000001 cycles: 22503437 heartbeat IPC: 4 cumulative IPC: 3.999 (Simulation time: 00 hr 49 min 10 sec)
Heartbeat CPU 4 instructions: 90000001 cycles: 22503455 heartbeat IPC: 4 cumulative IPC: 3.999 (Simulation time: 00 hr 49 min 10 sec)
Heartbeat CPU 6 instructions: 90000001 cycles: 22503457 heartbeat IPC: 4 cumulative IPC: 3.999 (Simulation time: 00 hr 49 min 10 sec)
*** Reached end of trace: (5, "/home/harshraj/COALESCE-Hashed-Perceptron-Cache-Replacement-Policy/simulator/traces/canneal_big2.champsimtrace")
*** Reached end of trace: (3, "/home/harshraj/COALESCE-Hashed-Perceptron-Cache-Replacement-Policy/simulator/traces/canneal_big2.champsimtrace")
Heartbeat CPU 5 instructions: 90000001 cycles: 22503805 heartbeat IPC: 4 cumulative IPC: 3.999 (Simulation time: 00 hr 49 min 10 sec)
Heartbeat CPU 3 instructions: 90000001 cycles: 22503809 heartbeat IPC: 4 cumulative IPC: 3.999 (Simulation time: 00 hr 49 min 10 sec)
*** Reached end of trace: (1, "/home/harshraj/COALESCE-Hashed-Perceptron-Cache-Replacement-Policy/simulator/traces/canneal_big0.champsimtrace")
Heartbeat CPU 1 instructions: 60000018 cycles: 23304305 heartbeat IPC: 2.595 cumulative IPC: 2.575 (Simulation time: 00 hr 50 min 55 sec)
*** Reached end of trace: (0, "/home/harshraj/COALESCE-Hashed-Perceptron-Cache-Replacement-Policy/simulator/traces/canneal_big4.champsimtrace")
*** Reached end of trace: (7, "/home/harshraj/COALESCE-Hashed-Perceptron-Cache-Replacement-Policy/simulator/traces/canneal_big4.champsimtrace")
*** Reached end of trace: (4, "/home/harshraj/COALESCE-Hashed-Perceptron-Cache-Replacement-Policy/simulator/traces/canneal_big3.champsimtrace")
*** Reached end of trace: (6, "/home/harshraj/COALESCE-Hashed-Perceptron-Cache-Replacement-Policy/simulator/traces/canneal_big3.champsimtrace")
*** Reached end of trace: (5, "/home/harshraj/COALESCE-Hashed-Perceptron-Cache-Replacement-Policy/simulator/traces/canneal_big2.champsimtrace")
*** Reached end of trace: (3, "/home/harshraj/COALESCE-Hashed-Perceptron-Cache-Replacement-Policy/simulator/traces/canneal_big2.champsimtrace")
*** Reached end of trace: (2, "/home/harshraj/COALESCE-Hashed-Perceptron-Cache-Replacement-Policy/simulator/traces/canneal_big1.champsimtrace")
Heartbeat CPU 2 instructions: 40000006 cycles: 24957950 heartbeat IPC: 1.753 cumulative IPC: 1.603 (Simulation time: 00 hr 54 min 34 sec)
*** Reached end of trace: (0, "/home/harshraj/COALESCE-Hashed-Perceptron-Cache-Replacement-Policy/simulator/traces/canneal_big4.champsimtrace")
*** Reached end of trace: (7, "/home/harshraj/COALESCE-Hashed-Perceptron-Cache-Replacement-Policy/simulator/traces/canneal_big4.champsimtrace")
*** Reached end of trace: (4, "/home/harshraj/COALESCE-Hashed-Perceptron-Cache-Replacement-Policy/simulator/traces/canneal_big3.champsimtrace")
*** Reached end of trace: (6, "/home/harshraj/COALESCE-Hashed-Perceptron-Cache-Replacement-Policy/simulator/traces/canneal_big3.champsimtrace")
Heartbeat CPU 0 instructions: 100000001 cycles: 25003428 heartbeat IPC: 4 cumulative IPC: 3.999 (Simulation time: 00 hr 54 min 40 sec)
Heartbeat CPU 7 instructions: 100000001 cycles: 25003437 heartbeat IPC: 4 cumulative IPC: 3.999 (Simulation time: 00 hr 54 min 40 sec)
Heartbeat CPU 4 instructions: 100000001 cycles: 25003455 heartbeat IPC: 4 cumulative IPC: 3.999 (Simulation time: 00 hr 54 min 40 sec)
Heartbeat CPU 6 instructions: 100000001 cycles: 25003457 heartbeat IPC: 4 cumulative IPC: 3.999 (Simulation time: 00 hr 54 min 40 sec)
*** Reached end of trace: (5, "/home/harshraj/COALESCE-Hashed-Perceptron-Cache-Replacement-Policy/simulator/traces/canneal_big2.champsimtrace")
*** Reached end of trace: (3, "/home/harshraj/COALESCE-Hashed-Perceptron-Cache-Replacement-Policy/simulator/traces/canneal_big2.champsimtrace")
Heartbeat CPU 5 instructions: 100000001 cycles: 25003805 heartbeat IPC: 4 cumulative IPC: 3.999 (Simulation time: 00 hr 54 min 40 sec)
Heartbeat CPU 3 instructions: 100000001 cycles: 25003809 heartbeat IPC: 4 cumulative IPC: 3.999 (Simulation time: 00 hr 54 min 40 sec)
*** Reached end of trace: (1, "/home/harshraj/COALESCE-Hashed-Perceptron-Cache-Replacement-Policy/simulator/traces/canneal_big0.champsimtrace")
*** Reached end of trace: (0, "/home/harshraj/COALESCE-Hashed-Perceptron-Cache-Replacement-Policy/simulator/traces/canneal_big4.champsimtrace")
*** Reached end of trace: (7, "/home/harshraj/COALESCE-Hashed-Perceptron-Cache-Replacement-Policy/simulator/traces/canneal_big4.champsimtrace")
*** Reached end of trace: (4, "/home/harshraj/COALESCE-Hashed-Perceptron-Cache-Replacement-Policy/simulator/traces/canneal_big3.champsimtrace")
*** Reached end of trace: (6, "/home/harshraj/COALESCE-Hashed-Perceptron-Cache-Replacement-Policy/simulator/traces/canneal_big3.champsimtrace")
*** Reached end of trace: (5, "/home/harshraj/COALESCE-Hashed-Perceptron-Cache-Replacement-Policy/simulator/traces/canneal_big2.champsimtrace")
*** Reached end of trace: (3, "/home/harshraj/COALESCE-Hashed-Perceptron-Cache-Replacement-Policy/simulator/traces/canneal_big2.champsimtrace")
*** Reached end of trace: (1, "/home/harshraj/COALESCE-Hashed-Perceptron-Cache-Replacement-Policy/simulator/traces/canneal_big0.champsimtrace")
Heartbeat CPU 1 instructions: 70000021 cycles: 27158506 heartbeat IPC: 2.595 cumulative IPC: 2.577 (Simulation time: 00 hr 59 min 24 sec)
*** Reached end of trace: (0, "/home/harshraj/COALESCE-Hashed-Perceptron-Cache-Replacement-Policy/simulator/traces/canneal_big4.champsimtrace")
*** Reached end of trace: (7, "/home/harshraj/COALESCE-Hashed-Perceptron-Cache-Replacement-Policy/simulator/traces/canneal_big4.champsimtrace")
*** Reached end of trace: (4, "/home/harshraj/COALESCE-Hashed-Perceptron-Cache-Replacement-Policy/simulator/traces/canneal_big3.champsimtrace")
*** Reached end of trace: (6, "/home/harshraj/COALESCE-Hashed-Perceptron-Cache-Replacement-Policy/simulator/traces/canneal_big3.champsimtrace")
Heartbeat CPU 0 instructions: 110000001 cycles: 27503428 heartbeat IPC: 4 cumulative IPC: 4 (Simulation time: 01 hr 00 min 11 sec)
Heartbeat CPU 7 instructions: 110000001 cycles: 27503437 heartbeat IPC: 4 cumulative IPC: 4 (Simulation time: 01 hr 00 min 11 sec)
Heartbeat CPU 4 instructions: 110000001 cycles: 27503455 heartbeat IPC: 4 cumulative IPC: 3.999 (Simulation time: 01 hr 00 min 11 sec)
Heartbeat CPU 6 instructions: 110000001 cycles: 27503457 heartbeat IPC: 4 cumulative IPC: 3.999 (Simulation time: 01 hr 00 min 11 sec)
*** Reached end of trace: (5, "/home/harshraj/COALESCE-Hashed-Perceptron-Cache-Replacement-Policy/simulator/traces/canneal_big2.champsimtrace")
*** Reached end of trace: (3, "/home/harshraj/COALESCE-Hashed-Perceptron-Cache-Replacement-Policy/simulator/traces/canneal_big2.champsimtrace")
Heartbeat CPU 5 instructions: 110000001 cycles: 27503805 heartbeat IPC: 4 cumulative IPC: 3.999 (Simulation time: 01 hr 00 min 11 sec)
Heartbeat CPU 3 instructions: 110000001 cycles: 27503809 heartbeat IPC: 4 cumulative IPC: 3.999 (Simulation time: 01 hr 00 min 11 sec)
*** Reached end of trace: (2, "/home/harshraj/COALESCE-Hashed-Perceptron-Cache-Replacement-Policy/simulator/traces/canneal_big1.champsimtrace")
*** Reached end of trace: (0, "/home/harshraj/COALESCE-Hashed-Perceptron-Cache-Replacement-Policy/simulator/traces/canneal_big4.champsimtrace")
*** Reached end of trace: (7, "/home/harshraj/COALESCE-Hashed-Perceptron-Cache-Replacement-Policy/simulator/traces/canneal_big4.champsimtrace")
*** Reached end of trace: (4, "/home/harshraj/COALESCE-Hashed-Perceptron-Cache-Replacement-Policy/simulator/traces/canneal_big3.champsimtrace")
*** Reached end of trace: (6, "/home/harshraj/COALESCE-Hashed-Perceptron-Cache-Replacement-Policy/simulator/traces/canneal_big3.champsimtrace")
*** Reached end of trace: (5, "/home/harshraj/COALESCE-Hashed-Perceptron-Cache-Replacement-Policy/simulator/traces/canneal_big2.champsimtrace")
*** Reached end of trace: (3, "/home/harshraj/COALESCE-Hashed-Perceptron-Cache-Replacement-Policy/simulator/traces/canneal_big2.champsimtrace")
*** Reached end of trace: (1, "/home/harshraj/COALESCE-Hashed-Perceptron-Cache-Replacement-Policy/simulator/traces/canneal_big0.champsimtrace")
*** Reached end of trace: (0, "/home/harshraj/COALESCE-Hashed-Perceptron-Cache-Replacement-Policy/simulator/traces/canneal_big4.champsimtrace")
*** Reached end of trace: (7, "/home/harshraj/COALESCE-Hashed-Perceptron-Cache-Replacement-Policy/simulator/traces/canneal_big4.champsimtrace")
*** Reached end of trace: (4, "/home/harshraj/COALESCE-Hashed-Perceptron-Cache-Replacement-Policy/simulator/traces/canneal_big3.champsimtrace")
*** Reached end of trace: (6, "/home/harshraj/COALESCE-Hashed-Perceptron-Cache-Replacement-Policy/simulator/traces/canneal_big3.champsimtrace")
Heartbeat CPU 0 instructions: 120000001 cycles: 30003428 heartbeat IPC: 4 cumulative IPC: 4 (Simulation time: 01 hr 05 min 41 sec)
Heartbeat CPU 7 instructions: 120000001 cycles: 30003437 heartbeat IPC: 4 cumulative IPC: 4 (Simulation time: 01 hr 05 min 41 sec)
Heartbeat CPU 4 instructions: 120000001 cycles: 30003455 heartbeat IPC: 4 cumulative IPC: 4 (Simulation time: 01 hr 05 min 41 sec)
Heartbeat CPU 6 instructions: 120000001 cycles: 30003457 heartbeat IPC: 4 cumulative IPC: 4 (Simulation time: 01 hr 05 min 41 sec)
*** Reached end of trace: (5, "/home/harshraj/COALESCE-Hashed-Perceptron-Cache-Replacement-Policy/simulator/traces/canneal_big2.champsimtrace")
*** Reached end of trace: (3, "/home/harshraj/COALESCE-Hashed-Perceptron-Cache-Replacement-Policy/simulator/traces/canneal_big2.champsimtrace")
Heartbeat CPU 5 instructions: 120000001 cycles: 30003805 heartbeat IPC: 4 cumulative IPC: 3.999 (Simulation time: 01 hr 05 min 41 sec)
Heartbeat CPU 3 instructions: 120000001 cycles: 30003809 heartbeat IPC: 4 cumulative IPC: 3.999 (Simulation time: 01 hr 05 min 41 sec)
*** Reached end of trace: (2, "/home/harshraj/COALESCE-Hashed-Perceptron-Cache-Replacement-Policy/simulator/traces/canneal_big1.champsimtrace")
Warmup finished CPU 2 instructions: 50000000 cycles: 30662666 cumulative IPC: 1.631 (Simulation time: 01 hr 07 min 07 sec)
Warmup complete CPU 7 instructions: 122636917 cycles: 30662666 cumulative IPC: 4 (Simulation time: 01 hr 07 min 07 sec)
Warmup complete CPU 6 instructions: 122636837 cycles: 30662666 cumulative IPC: 4 (Simulation time: 01 hr 07 min 07 sec)
Warmup complete CPU 5 instructions: 122635445 cycles: 30662666 cumulative IPC: 4 (Simulation time: 01 hr 07 min 07 sec)
Warmup complete CPU 4 instructions: 122636845 cycles: 30662666 cumulative IPC: 4 (Simulation time: 01 hr 07 min 07 sec)
Warmup complete CPU 3 instructions: 122635429 cycles: 30662666 cumulative IPC: 4 (Simulation time: 01 hr 07 min 07 sec)
Warmup complete CPU 2 instructions: 50000000 cycles: 30662666 cumulative IPC: 1.631 (Simulation time: 01 hr 07 min 07 sec)
Warmup complete CPU 1 instructions: 79156064 cycles: 30662666 cumulative IPC: 2.582 (Simulation time: 01 hr 07 min 07 sec)
Warmup complete CPU 0 instructions: 122636953 cycles: 30662666 cumulative IPC: 4 (Simulation time: 01 hr 07 min 07 sec)
Heartbeat CPU 2 instructions: 50000008 cycles: 30662868 heartbeat IPC: 1.753 cumulative IPC: 0.0396 (Simulation time: 01 hr 07 min 07 sec)
*** Reached end of trace: (1, "/home/harshraj/COALESCE-Hashed-Perceptron-Cache-Replacement-Policy/simulator/traces/canneal_big0.champsimtrace")
Heartbeat CPU 1 instructions: 80000021 cycles: 30987314 heartbeat IPC: 2.612 cumulative IPC: 2.6 (Simulation time: 01 hr 07 min 51 sec)
*** Reached end of trace: (0, "/home/harshraj/COALESCE-Hashed-Perceptron-Cache-Replacement-Policy/simulator/traces/canneal_big4.champsimtrace")
*** Reached end of trace: (7, "/home/harshraj/COALESCE-Hashed-Perceptron-Cache-Replacement-Policy/simulator/traces/canneal_big4.champsimtrace")
*** Reached end of trace: (4, "/home/harshraj/COALESCE-Hashed-Perceptron-Cache-Replacement-Policy/simulator/traces/canneal_big3.champsimtrace")
*** Reached end of trace: (6, "/home/harshraj/COALESCE-Hashed-Perceptron-Cache-Replacement-Policy/simulator/traces/canneal_big3.champsimtrace")
*** Reached end of trace: (5, "/home/harshraj/COALESCE-Hashed-Perceptron-Cache-Replacement-Policy/simulator/traces/canneal_big2.champsimtrace")
*** Reached end of trace: (3, "/home/harshraj/COALESCE-Hashed-Perceptron-Cache-Replacement-Policy/simulator/traces/canneal_big2.champsimtrace")
*** Reached end of trace: (0, "/home/harshraj/COALESCE-Hashed-Perceptron-Cache-Replacement-Policy/simulator/traces/canneal_big4.champsimtrace")
*** Reached end of trace: (7, "/home/harshraj/COALESCE-Hashed-Perceptron-Cache-Replacement-Policy/simulator/traces/canneal_big4.champsimtrace")
*** Reached end of trace: (4, "/home/harshraj/COALESCE-Hashed-Perceptron-Cache-Replacement-Policy/simulator/traces/canneal_big3.champsimtrace")
*** Reached end of trace: (6, "/home/harshraj/COALESCE-Hashed-Perceptron-Cache-Replacement-Policy/simulator/traces/canneal_big3.champsimtrace")
Heartbeat CPU 0 instructions: 130000001 cycles: 32503428 heartbeat IPC: 4 cumulative IPC: 4 (Simulation time: 01 hr 11 min 10 sec)
Heartbeat CPU 7 instructions: 130000001 cycles: 32503437 heartbeat IPC: 4 cumulative IPC: 4 (Simulation time: 01 hr 11 min 10 sec)
Heartbeat CPU 4 instructions: 130000001 cycles: 32503455 heartbeat IPC: 4 cumulative IPC: 4 (Simulation time: 01 hr 11 min 10 sec)
Heartbeat CPU 6 instructions: 130000001 cycles: 32503457 heartbeat IPC: 4 cumulative IPC: 4 (Simulation time: 01 hr 11 min 10 sec)
*** Reached end of trace: (5, "/home/harshraj/COALESCE-Hashed-Perceptron-Cache-Replacement-Policy/simulator/traces/canneal_big2.champsimtrace")
*** Reached end of trace: (3, "/home/harshraj/COALESCE-Hashed-Perceptron-Cache-Replacement-Policy/simulator/traces/canneal_big2.champsimtrace")
Heartbeat CPU 5 instructions: 130000001 cycles: 32503805 heartbeat IPC: 4 cumulative IPC: 4 (Simulation time: 01 hr 11 min 10 sec)
Heartbeat CPU 3 instructions: 130000001 cycles: 32503809 heartbeat IPC: 4 cumulative IPC: 4 (Simulation time: 01 hr 11 min 10 sec)
*** Reached end of trace: (1, "/home/harshraj/COALESCE-Hashed-Perceptron-Cache-Replacement-Policy/simulator/traces/canneal_big0.champsimtrace")
*** Reached end of trace: (0, "/home/harshraj/COALESCE-Hashed-Perceptron-Cache-Replacement-Policy/simulator/traces/canneal_big4.champsimtrace")
*** Reached end of trace: (7, "/home/harshraj/COALESCE-Hashed-Perceptron-Cache-Replacement-Policy/simulator/traces/canneal_big4.champsimtrace")
*** Reached end of trace: (4, "/home/harshraj/COALESCE-Hashed-Perceptron-Cache-Replacement-Policy/simulator/traces/canneal_big3.champsimtrace")
*** Reached end of trace: (6, "/home/harshraj/COALESCE-Hashed-Perceptron-Cache-Replacement-Policy/simulator/traces/canneal_big3.champsimtrace")
*** Reached end of trace: (5, "/home/harshraj/COALESCE-Hashed-Perceptron-Cache-Replacement-Policy/simulator/traces/canneal_big2.champsimtrace")
*** Reached end of trace: (3, "/home/harshraj/COALESCE-Hashed-Perceptron-Cache-Replacement-Policy/simulator/traces/canneal_big2.champsimtrace")
*** Reached end of trace: (0, "/home/harshraj/COALESCE-Hashed-Perceptron-Cache-Replacement-Policy/simulator/traces/canneal_big4.champsimtrace")
*** Reached end of trace: (7, "/home/harshraj/COALESCE-Hashed-Perceptron-Cache-Replacement-Policy/simulator/traces/canneal_big4.champsimtrace")
*** Reached end of trace: (4, "/home/harshraj/COALESCE-Hashed-Perceptron-Cache-Replacement-Policy/simulator/traces/canneal_big3.champsimtrace")
*** Reached end of trace: (6, "/home/harshraj/COALESCE-Hashed-Perceptron-Cache-Replacement-Policy/simulator/traces/canneal_big3.champsimtrace")
Heartbeat CPU 0 instructions: 140000001 cycles: 35003428 heartbeat IPC: 4 cumulative IPC: 4 (Simulation time: 01 hr 16 min 41 sec)
Heartbeat CPU 7 instructions: 140000001 cycles: 35003437 heartbeat IPC: 4 cumulative IPC: 4 (Simulation time: 01 hr 16 min 41 sec)
Heartbeat CPU 4 instructions: 140000001 cycles: 35003455 heartbeat IPC: 4 cumulative IPC: 4 (Simulation time: 01 hr 16 min 41 sec)
Heartbeat CPU 6 instructions: 140000001 cycles: 35003457 heartbeat IPC: 4 cumulative IPC: 4 (Simulation time: 01 hr 16 min 41 sec)
*** Reached end of trace: (5, "/home/harshraj/COALESCE-Hashed-Perceptron-Cache-Replacement-Policy/simulator/traces/canneal_big2.champsimtrace")
*** Reached end of trace: (3, "/home/harshraj/COALESCE-Hashed-Perceptron-Cache-Replacement-Policy/simulator/traces/canneal_big2.champsimtrace")
Heartbeat CPU 5 instructions: 140000001 cycles: 35003805 heartbeat IPC: 4 cumulative IPC: 4 (Simulation time: 01 hr 16 min 41 sec)
Heartbeat CPU 3 instructions: 140000001 cycles: 35003809 heartbeat IPC: 4 cumulative IPC: 4 (Simulation time: 01 hr 16 min 41 sec)
*** Reached end of trace: (1, "/home/harshraj/COALESCE-Hashed-Perceptron-Cache-Replacement-Policy/simulator/traces/canneal_big0.champsimtrace")
Heartbeat CPU 1 instructions: 90000024 cycles: 35445565 heartbeat IPC: 2.243 cumulative IPC: 2.267 (Simulation time: 01 hr 17 min 40 sec)
*** Reached end of trace: (0, "/home/harshraj/COALESCE-Hashed-Perceptron-Cache-Replacement-Policy/simulator/traces/canneal_big4.champsimtrace")
*** Reached end of trace: (7, "/home/harshraj/COALESCE-Hashed-Perceptron-Cache-Replacement-Policy/simulator/traces/canneal_big4.champsimtrace")
*** Reached end of trace: (4, "/home/harshraj/COALESCE-Hashed-Perceptron-Cache-Replacement-Policy/simulator/traces/canneal_big3.champsimtrace")
*** Reached end of trace: (6, "/home/harshraj/COALESCE-Hashed-Perceptron-Cache-Replacement-Policy/simulator/traces/canneal_big3.champsimtrace")
*** Reached end of trace: (5, "/home/harshraj/COALESCE-Hashed-Perceptron-Cache-Replacement-Policy/simulator/traces/canneal_big2.champsimtrace")
*** Reached end of trace: (3, "/home/harshraj/COALESCE-Hashed-Perceptron-Cache-Replacement-Policy/simulator/traces/canneal_big2.champsimtrace")
*** Reached end of trace: (0, "/home/harshraj/COALESCE-Hashed-Perceptron-Cache-Replacement-Policy/simulator/traces/canneal_big4.champsimtrace")
*** Reached end of trace: (7, "/home/harshraj/COALESCE-Hashed-Perceptron-Cache-Replacement-Policy/simulator/traces/canneal_big4.champsimtrace")
*** Reached end of trace: (4, "/home/harshraj/COALESCE-Hashed-Perceptron-Cache-Replacement-Policy/simulator/traces/canneal_big3.champsimtrace")
*** Reached end of trace: (6, "/home/harshraj/COALESCE-Hashed-Perceptron-Cache-Replacement-Policy/simulator/traces/canneal_big3.champsimtrace")
Heartbeat CPU 0 instructions: 150000001 cycles: 37503428 heartbeat IPC: 4 cumulative IPC: 4 (Simulation time: 01 hr 22 min 12 sec)
Heartbeat CPU 7 instructions: 150000001 cycles: 37503437 heartbeat IPC: 4 cumulative IPC: 4 (Simulation time: 01 hr 22 min 12 sec)
Heartbeat CPU 4 instructions: 150000001 cycles: 37503455 heartbeat IPC: 4 cumulative IPC: 4 (Simulation time: 01 hr 22 min 12 sec)
Heartbeat CPU 6 instructions: 150000001 cycles: 37503457 heartbeat IPC: 4 cumulative IPC: 4 (Simulation time: 01 hr 22 min 12 sec)
*** Reached end of trace: (5, "/home/harshraj/COALESCE-Hashed-Perceptron-Cache-Replacement-Policy/simulator/traces/canneal_big2.champsimtrace")
*** Reached end of trace: (3, "/home/harshraj/COALESCE-Hashed-Perceptron-Cache-Replacement-Policy/simulator/traces/canneal_big2.champsimtrace")
Heartbeat CPU 5 instructions: 150000001 cycles: 37503805 heartbeat IPC: 4 cumulative IPC: 4 (Simulation time: 01 hr 22 min 12 sec)
Heartbeat CPU 3 instructions: 150000001 cycles: 37503809 heartbeat IPC: 4 cumulative IPC: 4 (Simulation time: 01 hr 22 min 12 sec)
*** Reached end of trace: (1, "/home/harshraj/COALESCE-Hashed-Perceptron-Cache-Replacement-Policy/simulator/traces/canneal_big0.champsimtrace")
*** Reached end of trace: (0, "/home/harshraj/COALESCE-Hashed-Perceptron-Cache-Replacement-Policy/simulator/traces/canneal_big4.champsimtrace")
*** Reached end of trace: (7, "/home/harshraj/COALESCE-Hashed-Perceptron-Cache-Replacement-Policy/simulator/traces/canneal_big4.champsimtrace")
*** Reached end of trace: (4, "/home/harshraj/COALESCE-Hashed-Perceptron-Cache-Replacement-Policy/simulator/traces/canneal_big3.champsimtrace")
*** Reached end of trace: (6, "/home/harshraj/COALESCE-Hashed-Perceptron-Cache-Replacement-Policy/simulator/traces/canneal_big3.champsimtrace")
*** Reached end of trace: (5, "/home/harshraj/COALESCE-Hashed-Perceptron-Cache-Replacement-Policy/simulator/traces/canneal_big2.champsimtrace")
*** Reached end of trace: (3, "/home/harshraj/COALESCE-Hashed-Perceptron-Cache-Replacement-Policy/simulator/traces/canneal_big2.champsimtrace")
*** Reached end of trace: (1, "/home/harshraj/COALESCE-Hashed-Perceptron-Cache-Replacement-Policy/simulator/traces/canneal_big0.champsimtrace")
Heartbeat CPU 1 instructions: 100000025 cycles: 39891700 heartbeat IPC: 2.249 cumulative IPC: 2.259 (Simulation time: 01 hr 27 min 28 sec)
*** Reached end of trace: (0, "/home/harshraj/COALESCE-Hashed-Perceptron-Cache-Replacement-Policy/simulator/traces/canneal_big4.champsimtrace")
*** Reached end of trace: (7, "/home/harshraj/COALESCE-Hashed-Perceptron-Cache-Replacement-Policy/simulator/traces/canneal_big4.champsimtrace")
*** Reached end of trace: (4, "/home/harshraj/COALESCE-Hashed-Perceptron-Cache-Replacement-Policy/simulator/traces/canneal_big3.champsimtrace")
*** Reached end of trace: (6, "/home/harshraj/COALESCE-Hashed-Perceptron-Cache-Replacement-Policy/simulator/traces/canneal_big3.champsimtrace")
Heartbeat CPU 0 instructions: 160000001 cycles: 40003428 heartbeat IPC: 4 cumulative IPC: 4 (Simulation time: 01 hr 27 min 43 sec)
Heartbeat CPU 7 instructions: 160000001 cycles: 40003437 heartbeat IPC: 4 cumulative IPC: 4 (Simulation time: 01 hr 27 min 43 sec)
Heartbeat CPU 4 instructions: 160000001 cycles: 40003455 heartbeat IPC: 4 cumulative IPC: 4 (Simulation time: 01 hr 27 min 43 sec)
Heartbeat CPU 6 instructions: 160000001 cycles: 40003457 heartbeat IPC: 4 cumulative IPC: 4 (Simulation time: 01 hr 27 min 43 sec)
*** Reached end of trace: (5, "/home/harshraj/COALESCE-Hashed-Perceptron-Cache-Replacement-Policy/simulator/traces/canneal_big2.champsimtrace")
*** Reached end of trace: (3, "/home/harshraj/COALESCE-Hashed-Perceptron-Cache-Replacement-Policy/simulator/traces/canneal_big2.champsimtrace")
Heartbeat CPU 5 instructions: 160000001 cycles: 40003805 heartbeat IPC: 4 cumulative IPC: 4 (Simulation time: 01 hr 27 min 43 sec)
Heartbeat CPU 3 instructions: 160000001 cycles: 40003809 heartbeat IPC: 4 cumulative IPC: 4 (Simulation time: 01 hr 27 min 43 sec)
*** Reached end of trace: (0, "/home/harshraj/COALESCE-Hashed-Perceptron-Cache-Replacement-Policy/simulator/traces/canneal_big4.champsimtrace")
*** Reached end of trace: (7, "/home/harshraj/COALESCE-Hashed-Perceptron-Cache-Replacement-Policy/simulator/traces/canneal_big4.champsimtrace")
*** Reached end of trace: (4, "/home/harshraj/COALESCE-Hashed-Perceptron-Cache-Replacement-Policy/simulator/traces/canneal_big3.champsimtrace")
*** Reached end of trace: (6, "/home/harshraj/COALESCE-Hashed-Perceptron-Cache-Replacement-Policy/simulator/traces/canneal_big3.champsimtrace")
*** Reached end of trace: (5, "/home/harshraj/COALESCE-Hashed-Perceptron-Cache-Replacement-Policy/simulator/traces/canneal_big2.champsimtrace")
*** Reached end of trace: (3, "/home/harshraj/COALESCE-Hashed-Perceptron-Cache-Replacement-Policy/simulator/traces/canneal_big2.champsimtrace")
*** Reached end of trace: (1, "/home/harshraj/COALESCE-Hashed-Perceptron-Cache-Replacement-Policy/simulator/traces/canneal_big0.champsimtrace")
*** Reached end of trace: (0, "/home/harshraj/COALESCE-Hashed-Perceptron-Cache-Replacement-Policy/simulator/traces/canneal_big4.champsimtrace")
*** Reached end of trace: (7, "/home/harshraj/COALESCE-Hashed-Perceptron-Cache-Replacement-Policy/simulator/traces/canneal_big4.champsimtrace")
*** Reached end of trace: (4, "/home/harshraj/COALESCE-Hashed-Perceptron-Cache-Replacement-Policy/simulator/traces/canneal_big3.champsimtrace")
*** Reached end of trace: (6, "/home/harshraj/COALESCE-Hashed-Perceptron-Cache-Replacement-Policy/simulator/traces/canneal_big3.champsimtrace")
Heartbeat CPU 0 instructions: 170000001 cycles: 42503428 heartbeat IPC: 4 cumulative IPC: 4 (Simulation time: 01 hr 33 min 13 sec)
Heartbeat CPU 7 instructions: 170000001 cycles: 42503437 heartbeat IPC: 4 cumulative IPC: 4 (Simulation time: 01 hr 33 min 13 sec)
Heartbeat CPU 4 instructions: 170000001 cycles: 42503455 heartbeat IPC: 4 cumulative IPC: 4 (Simulation time: 01 hr 33 min 13 sec)
Heartbeat CPU 6 instructions: 170000001 cycles: 42503457 heartbeat IPC: 4 cumulative IPC: 4 (Simulation time: 01 hr 33 min 13 sec)
*** Reached end of trace: (5, "/home/harshraj/COALESCE-Hashed-Perceptron-Cache-Replacement-Policy/simulator/traces/canneal_big2.champsimtrace")
*** Reached end of trace: (3, "/home/harshraj/COALESCE-Hashed-Perceptron-Cache-Replacement-Policy/simulator/traces/canneal_big2.champsimtrace")
Heartbeat CPU 5 instructions: 170000001 cycles: 42503805 heartbeat IPC: 4 cumulative IPC: 4 (Simulation time: 01 hr 33 min 13 sec)
Heartbeat CPU 3 instructions: 170000001 cycles: 42503809 heartbeat IPC: 4 cumulative IPC: 4 (Simulation time: 01 hr 33 min 13 sec)
*** Reached end of trace: (0, "/home/harshraj/COALESCE-Hashed-Perceptron-Cache-Replacement-Policy/simulator/traces/canneal_big4.champsimtrace")
*** Reached end of trace: (7, "/home/harshraj/COALESCE-Hashed-Perceptron-Cache-Replacement-Policy/simulator/traces/canneal_big4.champsimtrace")
*** Reached end of trace: (4, "/home/harshraj/COALESCE-Hashed-Perceptron-Cache-Replacement-Policy/simulator/traces/canneal_big3.champsimtrace")
*** Reached end of trace: (6, "/home/harshraj/COALESCE-Hashed-Perceptron-Cache-Replacement-Policy/simulator/traces/canneal_big3.champsimtrace")
*** Reached end of trace: (5, "/home/harshraj/COALESCE-Hashed-Perceptron-Cache-Replacement-Policy/simulator/traces/canneal_big2.champsimtrace")
*** Reached end of trace: (3, "/home/harshraj/COALESCE-Hashed-Perceptron-Cache-Replacement-Policy/simulator/traces/canneal_big2.champsimtrace")
*** Reached end of trace: (2, "/home/harshraj/COALESCE-Hashed-Perceptron-Cache-Replacement-Policy/simulator/traces/canneal_big1.champsimtrace")
*** Reached end of trace: (1, "/home/harshraj/COALESCE-Hashed-Perceptron-Cache-Replacement-Policy/simulator/traces/canneal_big0.champsimtrace")
Heartbeat CPU 1 instructions: 110000028 cycles: 44348051 heartbeat IPC: 2.244 cumulative IPC: 2.254 (Simulation time: 01 hr 38 min 23 sec)
*** Reached end of trace: (0, "/home/harshraj/COALESCE-Hashed-Perceptron-Cache-Replacement-Policy/simulator/traces/canneal_big4.champsimtrace")
*** Reached end of trace: (7, "/home/harshraj/COALESCE-Hashed-Perceptron-Cache-Replacement-Policy/simulator/traces/canneal_big4.champsimtrace")
*** Reached end of trace: (4, "/home/harshraj/COALESCE-Hashed-Perceptron-Cache-Replacement-Policy/simulator/traces/canneal_big3.champsimtrace")
*** Reached end of trace: (6, "/home/harshraj/COALESCE-Hashed-Perceptron-Cache-Replacement-Policy/simulator/traces/canneal_big3.champsimtrace")
Heartbeat CPU 0 instructions: 180000001 cycles: 45003428 heartbeat IPC: 4 cumulative IPC: 4 (Simulation time: 01 hr 40 min 34 sec)
Heartbeat CPU 7 instructions: 180000001 cycles: 45003437 heartbeat IPC: 4 cumulative IPC: 4 (Simulation time: 01 hr 40 min 34 sec)
Heartbeat CPU 4 instructions: 180000001 cycles: 45003455 heartbeat IPC: 4 cumulative IPC: 4 (Simulation time: 01 hr 40 min 34 sec)
Heartbeat CPU 6 instructions: 180000001 cycles: 45003457 heartbeat IPC: 4 cumulative IPC: 4 (Simulation time: 01 hr 40 min 34 sec)
*** Reached end of trace: (5, "/home/harshraj/COALESCE-Hashed-Perceptron-Cache-Replacement-Policy/simulator/traces/canneal_big2.champsimtrace")
*** Reached end of trace: (3, "/home/harshraj/COALESCE-Hashed-Perceptron-Cache-Replacement-Policy/simulator/traces/canneal_big2.champsimtrace")
Heartbeat CPU 5 instructions: 180000001 cycles: 45003805 heartbeat IPC: 4 cumulative IPC: 4 (Simulation time: 01 hr 40 min 34 sec)
Heartbeat CPU 3 instructions: 180000001 cycles: 45003809 heartbeat IPC: 4 cumulative IPC: 4 (Simulation time: 01 hr 40 min 34 sec)
*** Reached end of trace: (0, "/home/harshraj/COALESCE-Hashed-Perceptron-Cache-Replacement-Policy/simulator/traces/canneal_big4.champsimtrace")
*** Reached end of trace: (7, "/home/harshraj/COALESCE-Hashed-Perceptron-Cache-Replacement-Policy/simulator/traces/canneal_big4.champsimtrace")
*** Reached end of trace: (4, "/home/harshraj/COALESCE-Hashed-Perceptron-Cache-Replacement-Policy/simulator/traces/canneal_big3.champsimtrace")
*** Reached end of trace: (6, "/home/harshraj/COALESCE-Hashed-Perceptron-Cache-Replacement-Policy/simulator/traces/canneal_big3.champsimtrace")
*** Reached end of trace: (5, "/home/harshraj/COALESCE-Hashed-Perceptron-Cache-Replacement-Policy/simulator/traces/canneal_big2.champsimtrace")
*** Reached end of trace: (3, "/home/harshraj/COALESCE-Hashed-Perceptron-Cache-Replacement-Policy/simulator/traces/canneal_big2.champsimtrace")
*** Reached end of trace: (1, "/home/harshraj/COALESCE-Hashed-Perceptron-Cache-Replacement-Policy/simulator/traces/canneal_big0.champsimtrace")
*** Reached end of trace: (0, "/home/harshraj/COALESCE-Hashed-Perceptron-Cache-Replacement-Policy/simulator/traces/canneal_big4.champsimtrace")
*** Reached end of trace: (7, "/home/harshraj/COALESCE-Hashed-Perceptron-Cache-Replacement-Policy/simulator/traces/canneal_big4.champsimtrace")
*** Reached end of trace: (4, "/home/harshraj/COALESCE-Hashed-Perceptron-Cache-Replacement-Policy/simulator/traces/canneal_big3.champsimtrace")
*** Reached end of trace: (6, "/home/harshraj/COALESCE-Hashed-Perceptron-Cache-Replacement-Policy/simulator/traces/canneal_big3.champsimtrace")
Heartbeat CPU 0 instructions: 190000001 cycles: 47503428 heartbeat IPC: 4 cumulative IPC: 4 (Simulation time: 01 hr 48 min 09 sec)
Heartbeat CPU 7 instructions: 190000001 cycles: 47503437 heartbeat IPC: 4 cumulative IPC: 4 (Simulation time: 01 hr 48 min 09 sec)
Heartbeat CPU 4 instructions: 190000001 cycles: 47503455 heartbeat IPC: 4 cumulative IPC: 4 (Simulation time: 01 hr 48 min 09 sec)
Heartbeat CPU 6 instructions: 190000001 cycles: 47503457 heartbeat IPC: 4 cumulative IPC: 4 (Simulation time: 01 hr 48 min 09 sec)
*** Reached end of trace: (5, "/home/harshraj/COALESCE-Hashed-Perceptron-Cache-Replacement-Policy/simulator/traces/canneal_big2.champsimtrace")
*** Reached end of trace: (3, "/home/harshraj/COALESCE-Hashed-Perceptron-Cache-Replacement-Policy/simulator/traces/canneal_big2.champsimtrace")
Heartbeat CPU 5 instructions: 190000001 cycles: 47503805 heartbeat IPC: 4 cumulative IPC: 4 (Simulation time: 01 hr 48 min 09 sec)
Heartbeat CPU 3 instructions: 190000001 cycles: 47503809 heartbeat IPC: 4 cumulative IPC: 4 (Simulation time: 01 hr 48 min 09 sec)
*** Reached end of trace: (0, "/home/harshraj/COALESCE-Hashed-Perceptron-Cache-Replacement-Policy/simulator/traces/canneal_big4.champsimtrace")
*** Reached end of trace: (7, "/home/harshraj/COALESCE-Hashed-Perceptron-Cache-Replacement-Policy/simulator/traces/canneal_big4.champsimtrace")
*** Reached end of trace: (4, "/home/harshraj/COALESCE-Hashed-Perceptron-Cache-Replacement-Policy/simulator/traces/canneal_big3.champsimtrace")
*** Reached end of trace: (6, "/home/harshraj/COALESCE-Hashed-Perceptron-Cache-Replacement-Policy/simulator/traces/canneal_big3.champsimtrace")
*** Reached end of trace: (5, "/home/harshraj/COALESCE-Hashed-Perceptron-Cache-Replacement-Policy/simulator/traces/canneal_big2.champsimtrace")
*** Reached end of trace: (3, "/home/harshraj/COALESCE-Hashed-Perceptron-Cache-Replacement-Policy/simulator/traces/canneal_big2.champsimtrace")
*** Reached end of trace: (1, "/home/harshraj/COALESCE-Hashed-Perceptron-Cache-Replacement-Policy/simulator/traces/canneal_big0.champsimtrace")
Heartbeat CPU 1 instructions: 120000031 cycles: 48807944 heartbeat IPC: 2.242 cumulative IPC: 2.251 (Simulation time: 01 hr 51 min 16 sec)
*** Reached end of trace: (0, "/home/harshraj/COALESCE-Hashed-Perceptron-Cache-Replacement-Policy/simulator/traces/canneal_big4.champsimtrace")
*** Reached end of trace: (7, "/home/harshraj/COALESCE-Hashed-Perceptron-Cache-Replacement-Policy/simulator/traces/canneal_big4.champsimtrace")
*** Reached end of trace: (4, "/home/harshraj/COALESCE-Hashed-Perceptron-Cache-Replacement-Policy/simulator/traces/canneal_big3.champsimtrace")
*** Reached end of trace: (6, "/home/harshraj/COALESCE-Hashed-Perceptron-Cache-Replacement-Policy/simulator/traces/canneal_big3.champsimtrace")
Heartbeat CPU 0 instructions: 200000001 cycles: 50003428 heartbeat IPC: 4 cumulative IPC: 4 (Simulation time: 01 hr 54 min 49 sec)
Heartbeat CPU 7 instructions: 200000001 cycles: 50003437 heartbeat IPC: 4 cumulative IPC: 4 (Simulation time: 01 hr 54 min 49 sec)
Heartbeat CPU 4 instructions: 200000001 cycles: 50003455 heartbeat IPC: 4 cumulative IPC: 4 (Simulation time: 01 hr 54 min 49 sec)
Heartbeat CPU 6 instructions: 200000001 cycles: 50003457 heartbeat IPC: 4 cumulative IPC: 4 (Simulation time: 01 hr 54 min 49 sec)
*** Reached end of trace: (5, "/home/harshraj/COALESCE-Hashed-Perceptron-Cache-Replacement-Policy/simulator/traces/canneal_big2.champsimtrace")
*** Reached end of trace: (3, "/home/harshraj/COALESCE-Hashed-Perceptron-Cache-Replacement-Policy/simulator/traces/canneal_big2.champsimtrace")
Heartbeat CPU 5 instructions: 200000001 cycles: 50003805 heartbeat IPC: 4 cumulative IPC: 4 (Simulation time: 01 hr 54 min 49 sec)
Heartbeat CPU 3 instructions: 200000001 cycles: 50003809 heartbeat IPC: 4 cumulative IPC: 4 (Simulation time: 01 hr 54 min 49 sec)
*** Reached end of trace: (1, "/home/harshraj/COALESCE-Hashed-Perceptron-Cache-Replacement-Policy/simulator/traces/canneal_big0.champsimtrace")
*** Reached end of trace: (0, "/home/harshraj/COALESCE-Hashed-Perceptron-Cache-Replacement-Policy/simulator/traces/canneal_big4.champsimtrace")
*** Reached end of trace: (7, "/home/harshraj/COALESCE-Hashed-Perceptron-Cache-Replacement-Policy/simulator/traces/canneal_big4.champsimtrace")
*** Reached end of trace: (4, "/home/harshraj/COALESCE-Hashed-Perceptron-Cache-Replacement-Policy/simulator/traces/canneal_big3.champsimtrace")
*** Reached end of trace: (6, "/home/harshraj/COALESCE-Hashed-Perceptron-Cache-Replacement-Policy/simulator/traces/canneal_big3.champsimtrace")
*** Reached end of trace: (5, "/home/harshraj/COALESCE-Hashed-Perceptron-Cache-Replacement-Policy/simulator/traces/canneal_big2.champsimtrace")
*** Reached end of trace: (3, "/home/harshraj/COALESCE-Hashed-Perceptron-Cache-Replacement-Policy/simulator/traces/canneal_big2.champsimtrace")
*** Reached end of trace: (0, "/home/harshraj/COALESCE-Hashed-Perceptron-Cache-Replacement-Policy/simulator/traces/canneal_big4.champsimtrace")
*** Reached end of trace: (7, "/home/harshraj/COALESCE-Hashed-Perceptron-Cache-Replacement-Policy/simulator/traces/canneal_big4.champsimtrace")
*** Reached end of trace: (4, "/home/harshraj/COALESCE-Hashed-Perceptron-Cache-Replacement-Policy/simulator/traces/canneal_big3.champsimtrace")
*** Reached end of trace: (6, "/home/harshraj/COALESCE-Hashed-Perceptron-Cache-Replacement-Policy/simulator/traces/canneal_big3.champsimtrace")
Heartbeat CPU 0 instructions: 210000001 cycles: 52503428 heartbeat IPC: 4 cumulative IPC: 4 (Simulation time: 02 hr 00 min 51 sec)
Heartbeat CPU 7 instructions: 210000001 cycles: 52503437 heartbeat IPC: 4 cumulative IPC: 4 (Simulation time: 02 hr 00 min 51 sec)
Heartbeat CPU 4 instructions: 210000001 cycles: 52503455 heartbeat IPC: 4 cumulative IPC: 4 (Simulation time: 02 hr 00 min 51 sec)
Heartbeat CPU 6 instructions: 210000001 cycles: 52503457 heartbeat IPC: 4 cumulative IPC: 4 (Simulation time: 02 hr 00 min 51 sec)
*** Reached end of trace: (5, "/home/harshraj/COALESCE-Hashed-Perceptron-Cache-Replacement-Policy/simulator/traces/canneal_big2.champsimtrace")
*** Reached end of trace: (3, "/home/harshraj/COALESCE-Hashed-Perceptron-Cache-Replacement-Policy/simulator/traces/canneal_big2.champsimtrace")
Heartbeat CPU 5 instructions: 210000001 cycles: 52503805 heartbeat IPC: 4 cumulative IPC: 4 (Simulation time: 02 hr 00 min 51 sec)
Heartbeat CPU 3 instructions: 210000001 cycles: 52503809 heartbeat IPC: 4 cumulative IPC: 4 (Simulation time: 02 hr 00 min 51 sec)
*** Reached end of trace: (1, "/home/harshraj/COALESCE-Hashed-Perceptron-Cache-Replacement-Policy/simulator/traces/canneal_big0.champsimtrace")
Heartbeat CPU 1 instructions: 130000034 cycles: 53263153 heartbeat IPC: 2.245 cumulative IPC: 2.25 (Simulation time: 02 hr 02 min 45 sec)
*** Reached end of trace: (0, "/home/harshraj/COALESCE-Hashed-Perceptron-Cache-Replacement-Policy/simulator/traces/canneal_big4.champsimtrace")
*** Reached end of trace: (7, "/home/harshraj/COALESCE-Hashed-Perceptron-Cache-Replacement-Policy/simulator/traces/canneal_big4.champsimtrace")
*** Reached end of trace: (4, "/home/harshraj/COALESCE-Hashed-Perceptron-Cache-Replacement-Policy/simulator/traces/canneal_big3.champsimtrace")
*** Reached end of trace: (6, "/home/harshraj/COALESCE-Hashed-Perceptron-Cache-Replacement-Policy/simulator/traces/canneal_big3.champsimtrace")
*** Reached end of trace: (5, "/home/harshraj/COALESCE-Hashed-Perceptron-Cache-Replacement-Policy/simulator/traces/canneal_big2.champsimtrace")
*** Reached end of trace: (3, "/home/harshraj/COALESCE-Hashed-Perceptron-Cache-Replacement-Policy/simulator/traces/canneal_big2.champsimtrace")
*** Reached end of trace: (0, "/home/harshraj/COALESCE-Hashed-Perceptron-Cache-Replacement-Policy/simulator/traces/canneal_big4.champsimtrace")
*** Reached end of trace: (7, "/home/harshraj/COALESCE-Hashed-Perceptron-Cache-Replacement-Policy/simulator/traces/canneal_big4.champsimtrace")
*** Reached end of trace: (4, "/home/harshraj/COALESCE-Hashed-Perceptron-Cache-Replacement-Policy/simulator/traces/canneal_big3.champsimtrace")
*** Reached end of trace: (6, "/home/harshraj/COALESCE-Hashed-Perceptron-Cache-Replacement-Policy/simulator/traces/canneal_big3.champsimtrace")
Heartbeat CPU 0 instructions: 220000001 cycles: 55003428 heartbeat IPC: 4 cumulative IPC: 4 (Simulation time: 02 hr 07 min 37 sec)
Heartbeat CPU 7 instructions: 220000001 cycles: 55003437 heartbeat IPC: 4 cumulative IPC: 4 (Simulation time: 02 hr 07 min 37 sec)
Heartbeat CPU 4 instructions: 220000001 cycles: 55003455 heartbeat IPC: 4 cumulative IPC: 4 (Simulation time: 02 hr 07 min 37 sec)
Heartbeat CPU 6 instructions: 220000001 cycles: 55003457 heartbeat IPC: 4 cumulative IPC: 4 (Simulation time: 02 hr 07 min 37 sec)
*** Reached end of trace: (5, "/home/harshraj/COALESCE-Hashed-Perceptron-Cache-Replacement-Policy/simulator/traces/canneal_big2.champsimtrace")
*** Reached end of trace: (3, "/home/harshraj/COALESCE-Hashed-Perceptron-Cache-Replacement-Policy/simulator/traces/canneal_big2.champsimtrace")
Heartbeat CPU 5 instructions: 220000001 cycles: 55003805 heartbeat IPC: 4 cumulative IPC: 4 (Simulation time: 02 hr 07 min 37 sec)
Heartbeat CPU 3 instructions: 220000001 cycles: 55003809 heartbeat IPC: 4 cumulative IPC: 4 (Simulation time: 02 hr 07 min 37 sec)
*** Reached end of trace: (1, "/home/harshraj/COALESCE-Hashed-Perceptron-Cache-Replacement-Policy/simulator/traces/canneal_big0.champsimtrace")
Simulation finished CPU 7 instructions: 100000000 cycles: 25000000 cumulative IPC: 4 (Simulation time: 02 hr 09 min 30 sec)
Simulation finished CPU 6 instructions: 100000000 cycles: 25000000 cumulative IPC: 4 (Simulation time: 02 hr 09 min 30 sec)
Simulation finished CPU 5 instructions: 100000000 cycles: 25000000 cumulative IPC: 4 (Simulation time: 02 hr 09 min 30 sec)
Simulation finished CPU 4 instructions: 100000000 cycles: 25000000 cumulative IPC: 4 (Simulation time: 02 hr 09 min 30 sec)
Simulation finished CPU 3 instructions: 100000000 cycles: 25000000 cumulative IPC: 4 (Simulation time: 02 hr 09 min 30 sec)
Simulation finished CPU 0 instructions: 100000000 cycles: 25000000 cumulative IPC: 4 (Simulation time: 02 hr 09 min 30 sec)
*** Reached end of trace: (0, "/home/harshraj/COALESCE-Hashed-Perceptron-Cache-Replacement-Policy/simulator/traces/canneal_big4.champsimtrace")
*** Reached end of trace: (7, "/home/harshraj/COALESCE-Hashed-Perceptron-Cache-Replacement-Policy/simulator/traces/canneal_big4.champsimtrace")
*** Reached end of trace: (4, "/home/harshraj/COALESCE-Hashed-Perceptron-Cache-Replacement-Policy/simulator/traces/canneal_big3.champsimtrace")
*** Reached end of trace: (6, "/home/harshraj/COALESCE-Hashed-Perceptron-Cache-Replacement-Policy/simulator/traces/canneal_big3.champsimtrace")
*** Reached end of trace: (5, "/home/harshraj/COALESCE-Hashed-Perceptron-Cache-Replacement-Policy/simulator/traces/canneal_big2.champsimtrace")
*** Reached end of trace: (3, "/home/harshraj/COALESCE-Hashed-Perceptron-Cache-Replacement-Policy/simulator/traces/canneal_big2.champsimtrace")
*** Reached end of trace: (0, "/home/harshraj/COALESCE-Hashed-Perceptron-Cache-Replacement-Policy/simulator/traces/canneal_big4.champsimtrace")
*** Reached end of trace: (7, "/home/harshraj/COALESCE-Hashed-Perceptron-Cache-Replacement-Policy/simulator/traces/canneal_big4.champsimtrace")
*** Reached end of trace: (4, "/home/harshraj/COALESCE-Hashed-Perceptron-Cache-Replacement-Policy/simulator/traces/canneal_big3.champsimtrace")
*** Reached end of trace: (6, "/home/harshraj/COALESCE-Hashed-Perceptron-Cache-Replacement-Policy/simulator/traces/canneal_big3.champsimtrace")
Heartbeat CPU 0 instructions: 230000001 cycles: 57503428 heartbeat IPC: 4 cumulative IPC: 4 (Simulation time: 02 hr 13 min 56 sec)
Heartbeat CPU 7 instructions: 230000001 cycles: 57503437 heartbeat IPC: 4 cumulative IPC: 4 (Simulation time: 02 hr 13 min 56 sec)
Heartbeat CPU 4 instructions: 230000001 cycles: 57503455 heartbeat IPC: 4 cumulative IPC: 4 (Simulation time: 02 hr 13 min 56 sec)
Heartbeat CPU 6 instructions: 230000001 cycles: 57503457 heartbeat IPC: 4 cumulative IPC: 4 (Simulation time: 02 hr 13 min 56 sec)
*** Reached end of trace: (5, "/home/harshraj/COALESCE-Hashed-Perceptron-Cache-Replacement-Policy/simulator/traces/canneal_big2.champsimtrace")
*** Reached end of trace: (3, "/home/harshraj/COALESCE-Hashed-Perceptron-Cache-Replacement-Policy/simulator/traces/canneal_big2.champsimtrace")
Heartbeat CPU 5 instructions: 230000001 cycles: 57503805 heartbeat IPC: 4 cumulative IPC: 4 (Simulation time: 02 hr 13 min 56 sec)
Heartbeat CPU 3 instructions: 230000001 cycles: 57503809 heartbeat IPC: 4 cumulative IPC: 4 (Simulation time: 02 hr 13 min 56 sec)
*** Reached end of trace: (2, "/home/harshraj/COALESCE-Hashed-Perceptron-Cache-Replacement-Policy/simulator/traces/canneal_big1.champsimtrace")
Heartbeat CPU 2 instructions: 60000010 cycles: 57515654 heartbeat IPC: 0.3724 cumulative IPC: 0.3724 (Simulation time: 02 hr 13 min 57 sec)
*** Reached end of trace: (1, "/home/harshraj/COALESCE-Hashed-Perceptron-Cache-Replacement-Policy/simulator/traces/canneal_big0.champsimtrace")
Heartbeat CPU 1 instructions: 140000037 cycles: 57713384 heartbeat IPC: 2.247 cumulative IPC: 2.249 (Simulation time: 02 hr 14 min 26 sec)
*** Reached end of trace: (0, "/home/harshraj/COALESCE-Hashed-Perceptron-Cache-Replacement-Policy/simulator/traces/canneal_big4.champsimtrace")
*** Reached end of trace: (7, "/home/harshraj/COALESCE-Hashed-Perceptron-Cache-Replacement-Policy/simulator/traces/canneal_big4.champsimtrace")
*** Reached end of trace: (4, "/home/harshraj/COALESCE-Hashed-Perceptron-Cache-Replacement-Policy/simulator/traces/canneal_big3.champsimtrace")
*** Reached end of trace: (6, "/home/harshraj/COALESCE-Hashed-Perceptron-Cache-Replacement-Policy/simulator/traces/canneal_big3.champsimtrace")
*** Reached end of trace: (5, "/home/harshraj/COALESCE-Hashed-Perceptron-Cache-Replacement-Policy/simulator/traces/canneal_big2.champsimtrace")
*** Reached end of trace: (3, "/home/harshraj/COALESCE-Hashed-Perceptron-Cache-Replacement-Policy/simulator/traces/canneal_big2.champsimtrace")
*** Reached end of trace: (1, "/home/harshraj/COALESCE-Hashed-Perceptron-Cache-Replacement-Policy/simulator/traces/canneal_big0.champsimtrace")
*** Reached end of trace: (0, "/home/harshraj/COALESCE-Hashed-Perceptron-Cache-Replacement-Policy/simulator/traces/canneal_big4.champsimtrace")
*** Reached end of trace: (7, "/home/harshraj/COALESCE-Hashed-Perceptron-Cache-Replacement-Policy/simulator/traces/canneal_big4.champsimtrace")
*** Reached end of trace: (4, "/home/harshraj/COALESCE-Hashed-Perceptron-Cache-Replacement-Policy/simulator/traces/canneal_big3.champsimtrace")
*** Reached end of trace: (6, "/home/harshraj/COALESCE-Hashed-Perceptron-Cache-Replacement-Policy/simulator/traces/canneal_big3.champsimtrace")
Heartbeat CPU 0 instructions: 240000001 cycles: 60003428 heartbeat IPC: 4 cumulative IPC: 4 (Simulation time: 02 hr 20 min 01 sec)
Heartbeat CPU 7 instructions: 240000001 cycles: 60003437 heartbeat IPC: 4 cumulative IPC: 4 (Simulation time: 02 hr 20 min 01 sec)
Heartbeat CPU 4 instructions: 240000001 cycles: 60003455 heartbeat IPC: 4 cumulative IPC: 4 (Simulation time: 02 hr 20 min 01 sec)
Heartbeat CPU 6 instructions: 240000001 cycles: 60003457 heartbeat IPC: 4 cumulative IPC: 4 (Simulation time: 02 hr 20 min 01 sec)
*** Reached end of trace: (5, "/home/harshraj/COALESCE-Hashed-Perceptron-Cache-Replacement-Policy/simulator/traces/canneal_big2.champsimtrace")
*** Reached end of trace: (3, "/home/harshraj/COALESCE-Hashed-Perceptron-Cache-Replacement-Policy/simulator/traces/canneal_big2.champsimtrace")
Heartbeat CPU 5 instructions: 240000001 cycles: 60003805 heartbeat IPC: 4 cumulative IPC: 4 (Simulation time: 02 hr 20 min 01 sec)
Heartbeat CPU 3 instructions: 240000001 cycles: 60003809 heartbeat IPC: 4 cumulative IPC: 4 (Simulation time: 02 hr 20 min 01 sec)
*** Reached end of trace: (0, "/home/harshraj/COALESCE-Hashed-Perceptron-Cache-Replacement-Policy/simulator/traces/canneal_big4.champsimtrace")
*** Reached end of trace: (7, "/home/harshraj/COALESCE-Hashed-Perceptron-Cache-Replacement-Policy/simulator/traces/canneal_big4.champsimtrace")
*** Reached end of trace: (4, "/home/harshraj/COALESCE-Hashed-Perceptron-Cache-Replacement-Policy/simulator/traces/canneal_big3.champsimtrace")
*** Reached end of trace: (6, "/home/harshraj/COALESCE-Hashed-Perceptron-Cache-Replacement-Policy/simulator/traces/canneal_big3.champsimtrace")
*** Reached end of trace: (5, "/home/harshraj/COALESCE-Hashed-Perceptron-Cache-Replacement-Policy/simulator/traces/canneal_big2.champsimtrace")
*** Reached end of trace: (3, "/home/harshraj/COALESCE-Hashed-Perceptron-Cache-Replacement-Policy/simulator/traces/canneal_big2.champsimtrace")
*** Reached end of trace: (1, "/home/harshraj/COALESCE-Hashed-Perceptron-Cache-Replacement-Policy/simulator/traces/canneal_big0.champsimtrace")
Heartbeat CPU 1 instructions: 150000040 cycles: 62167822 heartbeat IPC: 2.245 cumulative IPC: 2.249 (Simulation time: 02 hr 25 min 01 sec)
*** Reached end of trace: (0, "/home/harshraj/COALESCE-Hashed-Perceptron-Cache-Replacement-Policy/simulator/traces/canneal_big4.champsimtrace")
*** Reached end of trace: (7, "/home/harshraj/COALESCE-Hashed-Perceptron-Cache-Replacement-Policy/simulator/traces/canneal_big4.champsimtrace")
*** Reached end of trace: (4, "/home/harshraj/COALESCE-Hashed-Perceptron-Cache-Replacement-Policy/simulator/traces/canneal_big3.champsimtrace")
*** Reached end of trace: (6, "/home/harshraj/COALESCE-Hashed-Perceptron-Cache-Replacement-Policy/simulator/traces/canneal_big3.champsimtrace")
Heartbeat CPU 0 instructions: 250000001 cycles: 62503428 heartbeat IPC: 4 cumulative IPC: 4 (Simulation time: 02 hr 25 min 49 sec)
Heartbeat CPU 7 instructions: 250000001 cycles: 62503437 heartbeat IPC: 4 cumulative IPC: 4 (Simulation time: 02 hr 25 min 49 sec)
Heartbeat CPU 4 instructions: 250000001 cycles: 62503455 heartbeat IPC: 4 cumulative IPC: 4 (Simulation time: 02 hr 25 min 49 sec)
Heartbeat CPU 6 instructions: 250000001 cycles: 62503457 heartbeat IPC: 4 cumulative IPC: 4 (Simulation time: 02 hr 25 min 49 sec)
*** Reached end of trace: (5, "/home/harshraj/COALESCE-Hashed-Perceptron-Cache-Replacement-Policy/simulator/traces/canneal_big2.champsimtrace")
*** Reached end of trace: (3, "/home/harshraj/COALESCE-Hashed-Perceptron-Cache-Replacement-Policy/simulator/traces/canneal_big2.champsimtrace")
Heartbeat CPU 5 instructions: 250000001 cycles: 62503805 heartbeat IPC: 4 cumulative IPC: 4 (Simulation time: 02 hr 25 min 49 sec)
Heartbeat CPU 3 instructions: 250000001 cycles: 62503809 heartbeat IPC: 4 cumulative IPC: 4 (Simulation time: 02 hr 25 min 49 sec)
*** Reached end of trace: (0, "/home/harshraj/COALESCE-Hashed-Perceptron-Cache-Replacement-Policy/simulator/traces/canneal_big4.champsimtrace")
*** Reached end of trace: (7, "/home/harshraj/COALESCE-Hashed-Perceptron-Cache-Replacement-Policy/simulator/traces/canneal_big4.champsimtrace")
*** Reached end of trace: (4, "/home/harshraj/COALESCE-Hashed-Perceptron-Cache-Replacement-Policy/simulator/traces/canneal_big3.champsimtrace")
*** Reached end of trace: (6, "/home/harshraj/COALESCE-Hashed-Perceptron-Cache-Replacement-Policy/simulator/traces/canneal_big3.champsimtrace")
*** Reached end of trace: (5, "/home/harshraj/COALESCE-Hashed-Perceptron-Cache-Replacement-Policy/simulator/traces/canneal_big2.champsimtrace")
*** Reached end of trace: (3, "/home/harshraj/COALESCE-Hashed-Perceptron-Cache-Replacement-Policy/simulator/traces/canneal_big2.champsimtrace")
*** Reached end of trace: (1, "/home/harshraj/COALESCE-Hashed-Perceptron-Cache-Replacement-Policy/simulator/traces/canneal_big0.champsimtrace")
*** Reached end of trace: (0, "/home/harshraj/COALESCE-Hashed-Perceptron-Cache-Replacement-Policy/simulator/traces/canneal_big4.champsimtrace")
*** Reached end of trace: (7, "/home/harshraj/COALESCE-Hashed-Perceptron-Cache-Replacement-Policy/simulator/traces/canneal_big4.champsimtrace")
*** Reached end of trace: (4, "/home/harshraj/COALESCE-Hashed-Perceptron-Cache-Replacement-Policy/simulator/traces/canneal_big3.champsimtrace")
*** Reached end of trace: (6, "/home/harshraj/COALESCE-Hashed-Perceptron-Cache-Replacement-Policy/simulator/traces/canneal_big3.champsimtrace")
Heartbeat CPU 0 instructions: 260000001 cycles: 65003428 heartbeat IPC: 4 cumulative IPC: 4 (Simulation time: 02 hr 32 min 17 sec)
Heartbeat CPU 7 instructions: 260000001 cycles: 65003437 heartbeat IPC: 4 cumulative IPC: 4 (Simulation time: 02 hr 32 min 17 sec)
Heartbeat CPU 4 instructions: 260000001 cycles: 65003455 heartbeat IPC: 4 cumulative IPC: 4 (Simulation time: 02 hr 32 min 17 sec)
Heartbeat CPU 6 instructions: 260000001 cycles: 65003457 heartbeat IPC: 4 cumulative IPC: 4 (Simulation time: 02 hr 32 min 17 sec)
*** Reached end of trace: (5, "/home/harshraj/COALESCE-Hashed-Perceptron-Cache-Replacement-Policy/simulator/traces/canneal_big2.champsimtrace")
*** Reached end of trace: (3, "/home/harshraj/COALESCE-Hashed-Perceptron-Cache-Replacement-Policy/simulator/traces/canneal_big2.champsimtrace")
Heartbeat CPU 5 instructions: 260000001 cycles: 65003805 heartbeat IPC: 4 cumulative IPC: 4 (Simulation time: 02 hr 32 min 18 sec)
Heartbeat CPU 3 instructions: 260000001 cycles: 65003809 heartbeat IPC: 4 cumulative IPC: 4 (Simulation time: 02 hr 32 min 18 sec)
*** Reached end of trace: (0, "/home/harshraj/COALESCE-Hashed-Perceptron-Cache-Replacement-Policy/simulator/traces/canneal_big4.champsimtrace")
*** Reached end of trace: (7, "/home/harshraj/COALESCE-Hashed-Perceptron-Cache-Replacement-Policy/simulator/traces/canneal_big4.champsimtrace")
*** Reached end of trace: (4, "/home/harshraj/COALESCE-Hashed-Perceptron-Cache-Replacement-Policy/simulator/traces/canneal_big3.champsimtrace")
*** Reached end of trace: (6, "/home/harshraj/COALESCE-Hashed-Perceptron-Cache-Replacement-Policy/simulator/traces/canneal_big3.champsimtrace")
*** Reached end of trace: (5, "/home/harshraj/COALESCE-Hashed-Perceptron-Cache-Replacement-Policy/simulator/traces/canneal_big2.champsimtrace")
*** Reached end of trace: (3, "/home/harshraj/COALESCE-Hashed-Perceptron-Cache-Replacement-Policy/simulator/traces/canneal_big2.champsimtrace")
*** Reached end of trace: (1, "/home/harshraj/COALESCE-Hashed-Perceptron-Cache-Replacement-Policy/simulator/traces/canneal_big0.champsimtrace")
Heartbeat CPU 1 instructions: 160000043 cycles: 66610993 heartbeat IPC: 2.251 cumulative IPC: 2.249 (Simulation time: 02 hr 36 min 35 sec)
*** Reached end of trace: (0, "/home/harshraj/COALESCE-Hashed-Perceptron-Cache-Replacement-Policy/simulator/traces/canneal_big4.champsimtrace")
*** Reached end of trace: (7, "/home/harshraj/COALESCE-Hashed-Perceptron-Cache-Replacement-Policy/simulator/traces/canneal_big4.champsimtrace")
*** Reached end of trace: (4, "/home/harshraj/COALESCE-Hashed-Perceptron-Cache-Replacement-Policy/simulator/traces/canneal_big3.champsimtrace")
*** Reached end of trace: (6, "/home/harshraj/COALESCE-Hashed-Perceptron-Cache-Replacement-Policy/simulator/traces/canneal_big3.champsimtrace")
Heartbeat CPU 0 instructions: 270000001 cycles: 67503428 heartbeat IPC: 4 cumulative IPC: 4 (Simulation time: 02 hr 38 min 56 sec)
Heartbeat CPU 7 instructions: 270000001 cycles: 67503437 heartbeat IPC: 4 cumulative IPC: 4 (Simulation time: 02 hr 38 min 56 sec)
Heartbeat CPU 4 instructions: 270000001 cycles: 67503455 heartbeat IPC: 4 cumulative IPC: 4 (Simulation time: 02 hr 38 min 56 sec)
Heartbeat CPU 6 instructions: 270000001 cycles: 67503457 heartbeat IPC: 4 cumulative IPC: 4 (Simulation time: 02 hr 38 min 56 sec)
[...]
cpu5->cpu5_L1I PREFETCH REQUESTED:          0 ISSUED:          0 USEFUL:          0 USELESS:          0
cpu5->cpu5_L1I AVERAGE MISS LATENCY: - cycles
cpu5_L1I COHERENCE INVALIDATIONS:          0
cpu5_L1I COHERENCE WRITE-HIT OTHER-SHARER EVENTS:          0
cpu5_L1D COHERENCE INVALIDATIONS:          0
cpu5_L1D COHERENCE WRITE-HIT OTHER-SHARER EVENTS:          0
cpu5->cpu5_ITLB TOTAL        ACCESS:  119884365 HIT:  119884365 MISS:          0 MSHR_MERGE:          0
cpu5->cpu5_ITLB LOAD         ACCESS:  119884365 HIT:  119884365 MISS:          0 MSHR_MERGE:          0
cpu5->cpu5_ITLB RFO          ACCESS:          0 HIT:          0 MISS:          0 MSHR_MERGE:          0
cpu5->cpu5_ITLB PREFETCH     ACCESS:          0 HIT:          0 MISS:          0 MSHR_MERGE:          0
cpu5->cpu5_ITLB WRITE        ACCESS:          0 HIT:          0 MISS:          0 MSHR_MERGE:          0
cpu5->cpu5_ITLB TRANSLATION  ACCESS:          0 HIT:          0 MISS:          0 MSHR_MERGE:          0
cpu5->cpu5_ITLB PREFETCH REQUESTED:          0 ISSUED:          0 USEFUL:          0 USELESS:          0
cpu5->cpu5_ITLB AVERAGE MISS LATENCY: - cycles
cpu5_ITLB COHERENCE INVALIDATIONS:          0
cpu5_ITLB COHERENCE WRITE-HIT OTHER-SHARER EVENTS:          0
cpu5_DTLB COHERENCE INVALIDATIONS:          0
cpu5_DTLB COHERENCE WRITE-HIT OTHER-SHARER EVENTS:          0
cpu4_STLB COHERENCE INVALIDATIONS:          0
cpu4_STLB COHERENCE WRITE-HIT OTHER-SHARER EVENTS:          0
cpu4_L2C COHERENCE INVALIDATIONS:          0
cpu4_L2C COHERENCE WRITE-HIT OTHER-SHARER EVENTS:          0
cpu4->cpu4_L1I TOTAL        ACCESS:  144016303 HIT:  144016303 MISS:          0 MSHR_MERGE:          0
cpu4->cpu4_L1I LOAD         ACCESS:  144016303 HIT:  144016303 MISS:          0 MSHR_MERGE:          0
cpu4->cpu4_L1I RFO          ACCESS:          0 HIT:          0 MISS:          0 MSHR_MERGE:          0
cpu4->cpu4_L1I PREFETCH     ACCESS:          0 HIT:          0 MISS:          0 MSHR_MERGE:          0
cpu4->cpu4_L1I WRITE        ACCESS:          0 HIT:          0 MISS:          0 MSHR_MERGE:          0
cpu4->cpu4_L1I TRANSLATION  ACCESS:          0 HIT:          0 MISS:          0 MSHR_MERGE:          0
cpu4->cpu4_L1I PREFETCH REQUESTED:          0 ISSUED:          0 USEFUL:          0 USELESS:          0
cpu4->cpu4_L1I AVERAGE MISS LATENCY: - cycles
cpu4_L1I COHERENCE INVALIDATIONS:          0
cpu4_L1I COHERENCE WRITE-HIT OTHER-SHARER EVENTS:          0
cpu4_L1D COHERENCE INVALIDATIONS:          0
cpu4_L1D COHERENCE WRITE-HIT OTHER-SHARER EVENTS:          0
cpu4->cpu4_ITLB TOTAL        ACCESS:  119856237 HIT:  119856237 MISS:          0 MSHR_MERGE:          0
cpu4->cpu4_ITLB LOAD         ACCESS:  119856237 HIT:  119856237 MISS:          0 MSHR_MERGE:          0
cpu4->cpu4_ITLB RFO          ACCESS:          0 HIT:          0 MISS:          0 MSHR_MERGE:          0
cpu4->cpu4_ITLB PREFETCH     ACCESS:          0 HIT:          0 MISS:          0 MSHR_MERGE:          0
cpu4->cpu4_ITLB WRITE        ACCESS:          0 HIT:          0 MISS:          0 MSHR_MERGE:          0
cpu4->cpu4_ITLB TRANSLATION  ACCESS:          0 HIT:          0 MISS:          0 MSHR_MERGE:          0
cpu4->cpu4_ITLB PREFETCH REQUESTED:          0 ISSUED:          0 USEFUL:          0 USELESS:          0
cpu4->cpu4_ITLB AVERAGE MISS LATENCY: - cycles
cpu4_ITLB COHERENCE INVALIDATIONS:          0
cpu4_ITLB COHERENCE WRITE-HIT OTHER-SHARER EVENTS:          0
cpu4_DTLB COHERENCE INVALIDATIONS:          0
cpu4_DTLB COHERENCE WRITE-HIT OTHER-SHARER EVENTS:          0
cpu3_STLB COHERENCE INVALIDATIONS:          0
cpu3_STLB COHERENCE WRITE-HIT OTHER-SHARER EVENTS:          0
cpu3_L2C COHERENCE INVALIDATIONS:          0
cpu3_L2C COHERENCE WRITE-HIT OTHER-SHARER EVENTS:          0
cpu3->cpu3_L1I TOTAL        ACCESS:  154357345 HIT:  154357345 MISS:          0 MSHR_MERGE:          0
cpu3->cpu3_L1I LOAD         ACCESS:  154357345 HIT:  154357345 MISS:          0 MSHR_MERGE:          0
cpu3->cpu3_L1I RFO          ACCESS:          0 HIT:          0 MISS:          0 MSHR_MERGE:          0
cpu3->cpu3_L1I PREFETCH     ACCESS:          0 HIT:          0 MISS:          0 MSHR_MERGE:          0
cpu3->cpu3_L1I WRITE        ACCESS:          0 HIT:          0 MISS:          0 MSHR_MERGE:          0
cpu3->cpu3_L1I TRANSLATION  ACCESS:          0 HIT:          0 MISS:          0 MSHR_MERGE:          0
cpu3->cpu3_L1I PREFETCH REQUESTED:          0 ISSUED:          0 USEFUL:          0 USELESS:          0
cpu3->cpu3_L1I AVERAGE MISS LATENCY: - cycles
cpu3_L1I COHERENCE INVALIDATIONS:          0
cpu3_L1I COHERENCE WRITE-HIT OTHER-SHARER EVENTS:          0
cpu3_L1D COHERENCE INVALIDATIONS:          0
cpu3_L1D COHERENCE WRITE-HIT OTHER-SHARER EVENTS:          0
cpu3->cpu3_ITLB TOTAL        ACCESS:  128793888 HIT:  128793888 MISS:          0 MSHR_MERGE:          0
cpu3->cpu3_ITLB LOAD         ACCESS:  128793888 HIT:  128793888 MISS:          0 MSHR_MERGE:          0
cpu3->cpu3_ITLB RFO          ACCESS:          0 HIT:          0 MISS:          0 MSHR_MERGE:          0
cpu3->cpu3_ITLB PREFETCH     ACCESS:          0 HIT:          0 MISS:          0 MSHR_MERGE:          0
cpu3->cpu3_ITLB WRITE        ACCESS:          0 HIT:          0 MISS:          0 MSHR_MERGE:          0
cpu3->cpu3_ITLB TRANSLATION  ACCESS:          0 HIT:          0 MISS:          0 MSHR_MERGE:          0
cpu3->cpu3_ITLB PREFETCH REQUESTED:          0 ISSUED:          0 USEFUL:          0 USELESS:          0
cpu3->cpu3_ITLB AVERAGE MISS LATENCY: - cycles
cpu3_ITLB COHERENCE INVALIDATIONS:          0
cpu3_ITLB COHERENCE WRITE-HIT OTHER-SHARER EVENTS:          0
cpu3_DTLB COHERENCE INVALIDATIONS:          0
cpu3_DTLB COHERENCE WRITE-HIT OTHER-SHARER EVENTS:          0
cpu2->cpu2_STLB TOTAL        ACCESS:    2221001 HIT:    2024818 MISS:     196183 MSHR_MERGE:          0
cpu2->cpu2_STLB LOAD         ACCESS:    2221001 HIT:    2024818 MISS:     196183 MSHR_MERGE:          0
cpu2->cpu2_STLB RFO          ACCESS:          0 HIT:          0 MISS:          0 MSHR_MERGE:          0
cpu2->cpu2_STLB PREFETCH     ACCESS:          0 HIT:          0 MISS:          0 MSHR_MERGE:          0
cpu2->cpu2_STLB WRITE        ACCESS:          0 HIT:          0 MISS:          0 MSHR_MERGE:          0
cpu2->cpu2_STLB TRANSLATION  ACCESS:          0 HIT:          0 MISS:          0 MSHR_MERGE:          0
cpu2->cpu2_STLB PREFETCH REQUESTED:          0 ISSUED:          0 USEFUL:          0 USELESS:          0
cpu2->cpu2_STLB AVERAGE MISS LATENCY: 312.6 cycles
cpu2_STLB COHERENCE INVALIDATIONS:          0
cpu2_STLB COHERENCE WRITE-HIT OTHER-SHARER EVENTS:          0
cpu2->cpu2_L2C TOTAL        ACCESS:    2352449 HIT:     418269 MISS:    1934180 MSHR_MERGE:          0
cpu2->cpu2_L2C LOAD         ACCESS:    1963784 HIT:     416949 MISS:    1546835 MSHR_MERGE:          0
cpu2->cpu2_L2C RFO          ACCESS:          0 HIT:          0 MISS:          0 MSHR_MERGE:          0
cpu2->cpu2_L2C PREFETCH     ACCESS:          0 HIT:          0 MISS:          0 MSHR_MERGE:          0
cpu2->cpu2_L2C WRITE        ACCESS:          0 HIT:          0 MISS:          0 MSHR_MERGE:          0
cpu2->cpu2_L2C TRANSLATION  ACCESS:     388665 HIT:       1320 MISS:     387345 MSHR_MERGE:          0
cpu2->cpu2_L2C PREFETCH REQUESTED:          0 ISSUED:          0 USEFUL:          0 USELESS:          0
cpu2->cpu2_L2C AVERAGE MISS LATENCY: 187.3 cycles
cpu2_L2C COHERENCE INVALIDATIONS:          0
cpu2_L2C COHERENCE WRITE-HIT OTHER-SHARER EVENTS:          0
cpu2->cpu2_L1I TOTAL        ACCESS:   33397714 HIT:   31241716 MISS:    2155998 MSHR_MERGE:     192214
cpu2->cpu2_L1I LOAD         ACCESS:   33397714 HIT:   31241716 MISS:    2155998 MSHR_MERGE:     192214
cpu2->cpu2_L1I RFO          ACCESS:          0 HIT:          0 MISS:          0 MSHR_MERGE:          0
cpu2->cpu2_L1I PREFETCH     ACCESS:          0 HIT:          0 MISS:          0 MSHR_MERGE:          0
cpu2->cpu2_L1I WRITE        ACCESS:          0 HIT:          0 MISS:          0 MSHR_MERGE:          0
cpu2->cpu2_L1I TRANSLATION  ACCESS:          0 HIT:          0 MISS:          0 MSHR_MERGE:          0
cpu2->cpu2_L1I PREFETCH REQUESTED:          0 ISSUED:          0 USEFUL:          0 USELESS:          0
cpu2->cpu2_L1I AVERAGE MISS LATENCY: 163.8 cycles
cpu2_L1I COHERENCE INVALIDATIONS:          0
cpu2_L1I COHERENCE WRITE-HIT OTHER-SHARER EVENTS:          0
cpu2->cpu2_L1D TOTAL        ACCESS:     392438 HIT:       3773 MISS:     388665 MSHR_MERGE:          0
cpu2->cpu2_L1D LOAD         ACCESS:          0 HIT:          0 MISS:          0 MSHR_MERGE:          0
cpu2->cpu2_L1D RFO          ACCESS:          0 HIT:          0 MISS:          0 MSHR_MERGE:          0
cpu2->cpu2_L1D PREFETCH     ACCESS:          0 HIT:          0 MISS:          0 MSHR_MERGE:          0
cpu2->cpu2_L1D WRITE        ACCESS:          0 HIT:          0 MISS:          0 MSHR_MERGE:          0
cpu2->cpu2_L1D TRANSLATION  ACCESS:     392438 HIT:       3773 MISS:     388665 MSHR_MERGE:          0
cpu2->cpu2_L1D PREFETCH REQUESTED:          0 ISSUED:          0 USEFUL:          0 USELESS:          0
cpu2->cpu2_L1D AVERAGE MISS LATENCY: 151.7 cycles
cpu2_L1D COHERENCE INVALIDATIONS:          0
cpu2_L1D COHERENCE WRITE-HIT OTHER-SHARER EVENTS:          0
cpu2->cpu2_ITLB TOTAL        ACCESS:   32669486 HIT:   30401294 MISS:    2268192 MSHR_MERGE:      47191
cpu2->cpu2_ITLB LOAD         ACCESS:   32669486 HIT:   30401294 MISS:    2268192 MSHR_MERGE:      47191
cpu2->cpu2_ITLB RFO          ACCESS:          0 HIT:          0 MISS:          0 MSHR_MERGE:          0
cpu2->cpu2_ITLB PREFETCH     ACCESS:          0 HIT:          0 MISS:          0 MSHR_MERGE:          0
cpu2->cpu2_ITLB WRITE        ACCESS:          0 HIT:          0 MISS:          0 MSHR_MERGE:          0
cpu2->cpu2_ITLB TRANSLATION  ACCESS:          0 HIT:          0 MISS:          0 MSHR_MERGE:          0
cpu2->cpu2_ITLB PREFETCH REQUESTED:          0 ISSUED:          0 USEFUL:          0 USELESS:          0
cpu2->cpu2_ITLB AVERAGE MISS LATENCY: 31.7 cycles
cpu2_ITLB COHERENCE INVALIDATIONS:          0
cpu2_ITLB COHERENCE WRITE-HIT OTHER-SHARER EVENTS:          0
cpu2_DTLB COHERENCE INVALIDATIONS:          0
cpu2_DTLB COHERENCE WRITE-HIT OTHER-SHARER EVENTS:          0
cpu1->cpu1_STLB TOTAL        ACCESS:     226920 HIT:     226920 MISS:          0 MSHR_MERGE:          0
cpu1->cpu1_STLB LOAD         ACCESS:     226920 HIT:     226920 MISS:          0 MSHR_MERGE:          0
cpu1->cpu1_STLB RFO          ACCESS:          0 HIT:          0 MISS:          0 MSHR_MERGE:          0
cpu1->cpu1_STLB PREFETCH     ACCESS:          0 HIT:          0 MISS:          0 MSHR_MERGE:          0
cpu1->cpu1_STLB WRITE        ACCESS:          0 HIT:          0 MISS:          0 MSHR_MERGE:          0
cpu1->cpu1_STLB TRANSLATION  ACCESS:          0 HIT:          0 MISS:          0 MSHR_MERGE:          0
cpu1->cpu1_STLB PREFETCH REQUESTED:          0 ISSUED:          0 USEFUL:          0 USELESS:          0
cpu1->cpu1_STLB AVERAGE MISS LATENCY: - cycles
cpu1_STLB COHERENCE INVALIDATIONS:          0
cpu1_STLB COHERENCE WRITE-HIT OTHER-SHARER EVENTS:          0
cpu1->cpu1_L2C TOTAL        ACCESS:    7225519 HIT:    3502817 MISS:    3722702 MSHR_MERGE:          0
cpu1->cpu1_L2C LOAD         ACCESS:    1144046 HIT:     385613 MISS:     758433 MSHR_MERGE:          0
cpu1->cpu1_L2C RFO          ACCESS:    3017150 HIT:      53002 MISS:    2964148 MSHR_MERGE:          0
cpu1->cpu1_L2C PREFETCH     ACCESS:          0 HIT:          0 MISS:          0 MSHR_MERGE:          0
cpu1->cpu1_L2C WRITE        ACCESS:    3064323 HIT:    3064202 MISS:        121 MSHR_MERGE:          0
cpu1->cpu1_L2C TRANSLATION  ACCESS:          0 HIT:          0 MISS:          0 MSHR_MERGE:          0
cpu1->cpu1_L2C PREFETCH REQUESTED:          0 ISSUED:          0 USEFUL:          0 USELESS:          0
cpu1->cpu1_L2C AVERAGE MISS LATENCY: 59.86 cycles
cpu1_L2C COHERENCE INVALIDATIONS:          0
cpu1_L2C COHERENCE WRITE-HIT OTHER-SHARER EVENTS:          0
cpu1->cpu1_L1I TOTAL        ACCESS:  101464811 HIT:  101223845 MISS:     240966 MSHR_MERGE:      76769
cpu1->cpu1_L1I LOAD         ACCESS:  101464811 HIT:  101223845 MISS:     240966 MSHR_MERGE:      76769
cpu1->cpu1_L1I RFO          ACCESS:          0 HIT:          0 MISS:          0 MSHR_MERGE:          0
cpu1->cpu1_L1I PREFETCH     ACCESS:          0 HIT:          0 MISS:          0 MSHR_MERGE:          0
cpu1->cpu1_L1I WRITE        ACCESS:          0 HIT:          0 MISS:          0 MSHR_MERGE:          0
cpu1->cpu1_L1I TRANSLATION  ACCESS:          0 HIT:          0 MISS:          0 MSHR_MERGE:          0
cpu1->cpu1_L1I PREFETCH REQUESTED:          0 ISSUED:          0 USEFUL:          0 USELESS:          0
cpu1->cpu1_L1I AVERAGE MISS LATENCY: 233.2 cycles
cpu1_L1I COHERENCE INVALIDATIONS:          0
cpu1_L1I COHERENCE WRITE-HIT OTHER-SHARER EVENTS:          0
cpu1->cpu1_L1D TOTAL        ACCESS:  118252773 HIT:  106695920 MISS:   11556853 MSHR_MERGE:    7555495
cpu1->cpu1_L1D LOAD         ACCESS:   12013235 HIT:   10043327 MISS:    1969908 MSHR_MERGE:     990059
cpu1->cpu1_L1D RFO          ACCESS:          0 HIT:          0 MISS:          0 MSHR_MERGE:          0
cpu1->cpu1_L1D PREFETCH     ACCESS:          0 HIT:          0 MISS:          0 MSHR_MERGE:          0
cpu1->cpu1_L1D WRITE        ACCESS:  106239538 HIT:   96652593 MISS:    9586945 MSHR_MERGE:    6565436
cpu1->cpu1_L1D TRANSLATION  ACCESS:          0 HIT:          0 MISS:          0 MSHR_MERGE:          0
cpu1->cpu1_L1D PREFETCH REQUESTED:          0 ISSUED:          0 USEFUL:          0 USELESS:          0
cpu1->cpu1_L1D AVERAGE MISS LATENCY: 54.34 cycles
cpu1_L1D COHERENCE INVALIDATIONS:          0
cpu1_L1D COHERENCE WRITE-HIT OTHER-SHARER EVENTS:          0
cpu1->cpu1_ITLB TOTAL        ACCESS:   84503828 HIT:   84469774 MISS:      34054 MSHR_MERGE:      13363
cpu1->cpu1_ITLB LOAD         ACCESS:   84503828 HIT:   84469774 MISS:      34054 MSHR_MERGE:      13363
cpu1->cpu1_ITLB RFO          ACCESS:          0 HIT:          0 MISS:          0 MSHR_MERGE:          0
cpu1->cpu1_ITLB PREFETCH     ACCESS:          0 HIT:          0 MISS:          0 MSHR_MERGE:          0
cpu1->cpu1_ITLB WRITE        ACCESS:          0 HIT:          0 MISS:          0 MSHR_MERGE:          0
cpu1->cpu1_ITLB TRANSLATION  ACCESS:          0 HIT:          0 MISS:          0 MSHR_MERGE:          0
cpu1->cpu1_ITLB PREFETCH REQUESTED:          0 ISSUED:          0 USEFUL:          0 USELESS:          0
cpu1->cpu1_ITLB AVERAGE MISS LATENCY: 4 cycles
cpu1_ITLB COHERENCE INVALIDATIONS:          0
cpu1_ITLB COHERENCE WRITE-HIT OTHER-SHARER EVENTS:          0
cpu1->cpu1_DTLB TOTAL        ACCESS:  100067712 HIT:   99817185 MISS:     250527 MSHR_MERGE:      44298
cpu1->cpu1_DTLB LOAD         ACCESS:  100067712 HIT:   99817185 MISS:     250527 MSHR_MERGE:      44298
cpu1->cpu1_DTLB RFO          ACCESS:          0 HIT:          0 MISS:          0 MSHR_MERGE:          0
cpu1->cpu1_DTLB PREFETCH     ACCESS:          0 HIT:          0 MISS:          0 MSHR_MERGE:          0
cpu1->cpu1_DTLB WRITE        ACCESS:          0 HIT:          0 MISS:          0 MSHR_MERGE:          0
cpu1->cpu1_DTLB TRANSLATION  ACCESS:          0 HIT:          0 MISS:          0 MSHR_MERGE:          0
cpu1->cpu1_DTLB PREFETCH REQUESTED:          0 ISSUED:          0 USEFUL:          0 USELESS:          0
cpu1->cpu1_DTLB AVERAGE MISS LATENCY: 3.937 cycles
cpu1_DTLB COHERENCE INVALIDATIONS:          0
cpu1_DTLB COHERENCE WRITE-HIT OTHER-SHARER EVENTS:          0
cpu0_STLB COHERENCE INVALIDATIONS:          0
cpu0_STLB COHERENCE WRITE-HIT OTHER-SHARER EVENTS:          0
cpu0_L2C COHERENCE INVALIDATIONS:          0
cpu0_L2C COHERENCE WRITE-HIT OTHER-SHARER EVENTS:          0
cpu0->cpu0_L1I TOTAL        ACCESS:  154450353 HIT:  154450353 MISS:          0 MSHR_MERGE:          0
cpu0->cpu0_L1I LOAD         ACCESS:  154450353 HIT:  154450353 MISS:          0 MSHR_MERGE:          0
cpu0->cpu0_L1I RFO          ACCESS:          0 HIT:          0 MISS:          0 MSHR_MERGE:          0
cpu0->cpu0_L1I PREFETCH     ACCESS:          0 HIT:          0 MISS:          0 MSHR_MERGE:          0
cpu0->cpu0_L1I WRITE        ACCESS:          0 HIT:          0 MISS:          0 MSHR_MERGE:          0
cpu0->cpu0_L1I TRANSLATION  ACCESS:          0 HIT:          0 MISS:          0 MSHR_MERGE:          0
cpu0->cpu0_L1I PREFETCH REQUESTED:          0 ISSUED:          0 USEFUL:          0 USELESS:          0
cpu0->cpu0_L1I AVERAGE MISS LATENCY: - cycles
cpu0_L1I COHERENCE INVALIDATIONS:          0
cpu0_L1I COHERENCE WRITE-HIT OTHER-SHARER EVENTS:          0
cpu0_L1D COHERENCE INVALIDATIONS:          0
cpu0_L1D COHERENCE WRITE-HIT OTHER-SHARER EVENTS:          0
cpu0->cpu0_ITLB TOTAL        ACCESS:  128817155 HIT:  128817155 MISS:          0 MSHR_MERGE:          0
cpu0->cpu0_ITLB LOAD         ACCESS:  128817155 HIT:  128817155 MISS:          0 MSHR_MERGE:          0
cpu0->cpu0_ITLB RFO          ACCESS:          0 HIT:          0 MISS:          0 MSHR_MERGE:          0
cpu0->cpu0_ITLB PREFETCH     ACCESS:          0 HIT:          0 MISS:          0 MSHR_MERGE:          0
cpu0->cpu0_ITLB WRITE        ACCESS:          0 HIT:          0 MISS:          0 MSHR_MERGE:          0
cpu0->cpu0_ITLB TRANSLATION  ACCESS:          0 HIT:          0 MISS:          0 MSHR_MERGE:          0
cpu0->cpu0_ITLB PREFETCH REQUESTED:          0 ISSUED:          0 USEFUL:          0 USELESS:          0
cpu0->cpu0_ITLB AVERAGE MISS LATENCY: - cycles
cpu0_ITLB COHERENCE INVALIDATIONS:          0
cpu0_ITLB COHERENCE WRITE-HIT OTHER-SHARER EVENTS:          0
cpu0_DTLB COHERENCE INVALIDATIONS:          0
cpu0_DTLB COHERENCE WRITE-HIT OTHER-SHARER EVENTS:          0
cpu1->LLC TOTAL        ACCESS:    6720729 HIT:    5851583 MISS:     869146 MSHR_MERGE:          0
cpu1->LLC LOAD         ACCESS:     758433 HIT:      38631 MISS:     719802 MSHR_MERGE:          0
cpu1->LLC RFO          ACCESS:    2964148 HIT:    2890188 MISS:      73960 MSHR_MERGE:          0
cpu1->LLC PREFETCH     ACCESS:          0 HIT:          0 MISS:          0 MSHR_MERGE:          0
cpu1->LLC WRITE        ACCESS:    2998148 HIT:    2922764 MISS:      75384 MSHR_MERGE:          0
cpu1->LLC TRANSLATION  ACCESS:          0 HIT:          0 MISS:          0 MSHR_MERGE:          0
cpu1->LLC PREFETCH REQUESTED:          0 ISSUED:          0 USEFUL:          0 USELESS:          0
cpu1->LLC AVERAGE MISS LATENCY: 573.4 cycles
cpu2->LLC TOTAL        ACCESS:    1934180 HIT:     255475 MISS:    1678705 MSHR_MERGE:          0
cpu2->LLC LOAD         ACCESS:    1546835 HIT:     121249 MISS:    1425586 MSHR_MERGE:          0
cpu2->LLC RFO          ACCESS:          0 HIT:          0 MISS:          0 MSHR_MERGE:          0
cpu2->LLC PREFETCH     ACCESS:          0 HIT:          0 MISS:          0 MSHR_MERGE:          0
cpu2->LLC WRITE        ACCESS:          0 HIT:          0 MISS:          0 MSHR_MERGE:          0
cpu2->LLC TRANSLATION  ACCESS:     387345 HIT:     134226 MISS:     253119 MSHR_MERGE:          0
cpu2->LLC PREFETCH REQUESTED:          0 ISSUED:          0 USEFUL:          0 USELESS:          0
cpu2->LLC AVERAGE MISS LATENCY: 296.9 cycles
LLC COHERENCE INVALIDATIONS:     106173
LLC COHERENCE WRITE-HIT OTHER-SHARER EVENTS:     106173
LLC SHARER HIST TOTAL:       40765632
LLC SHARER HIST[ 1]:       40150584  (98.491%)
LLC SHARER HIST[ 2]:         567540  ( 1.392%)
LLC SHARER HIST[ 5]:           2488  ( 0.006%)
LLC SHARER HIST[ 6]:           2387  ( 0.006%)
LLC SHARER HIST[ 7]:          30882  ( 0.076%)
LLC SHARER HIST[ 8]:          11751  ( 0.029%)

DRAM Statistics

Channel 0 RQ ROW_BUFFER_HIT:      22988
  ROW_BUFFER_MISS:    2449452
  AVG DBUS CONGESTED CYCLE: 15.42
Channel 0 WQ ROW_BUFFER_HIT:      26125
  ROW_BUFFER_MISS:      49811
  FULL:          0
Channel 0 REFRESHES ISSUED:      22381

VMEM ALIASED FILLS (cross-CPU shared-page hits): 8093
