[VMEM] WARNING: physical memory size is smaller than virtual memory size.

*** ChampSim Multicore Out-of-Order Simulator ***
Warmup Instructions: 50000000
Simulation Instructions: 100000000
Number of CPUs: 8
Page size: 4096

Off-chip DRAM Size: 16 GiB Channels: 1 Width: 64-bit Data Rate: 3205 MT/s
*** Reached end of trace: (4, "traces/canneal_big4.champsimtrace")
*** Reached end of trace: (3, "traces/canneal_big3.champsimtrace")
*** Reached end of trace: (2, "traces/canneal_big2.champsimtrace")
*** Reached end of trace: (7, "traces/canneal_big2.champsimtrace")
*** Reached end of trace: (0, "traces/canneal_big0.champsimtrace")
*** Reached end of trace: (5, "traces/canneal_big0.champsimtrace")
*** Reached end of trace: (4, "traces/canneal_big4.champsimtrace")
*** Reached end of trace: (3, "traces/canneal_big3.champsimtrace")
Heartbeat CPU 4 instructions: 10000001 cycles: 2503631 heartbeat IPC: 3.994 cumulative IPC: 3.994 (Simulation time: 00 hr 05 min 45 sec)
Heartbeat CPU 3 instructions: 10000001 cycles: 2503657 heartbeat IPC: 3.994 cumulative IPC: 3.994 (Simulation time: 00 hr 05 min 45 sec)
*** Reached end of trace: (2, "traces/canneal_big2.champsimtrace")
*** Reached end of trace: (7, "traces/canneal_big2.champsimtrace")
Heartbeat CPU 2 instructions: 10000001 cycles: 2503806 heartbeat IPC: 3.994 cumulative IPC: 3.994 (Simulation time: 00 hr 05 min 45 sec)
Heartbeat CPU 7 instructions: 10000001 cycles: 2503813 heartbeat IPC: 3.994 cumulative IPC: 3.994 (Simulation time: 00 hr 05 min 45 sec)
*** Reached end of trace: (4, "traces/canneal_big4.champsimtrace")
*** Reached end of trace: (3, "traces/canneal_big3.champsimtrace")
*** Reached end of trace: (2, "traces/canneal_big2.champsimtrace")
*** Reached end of trace: (7, "traces/canneal_big2.champsimtrace")
*** Reached end of trace: (0, "traces/canneal_big0.champsimtrace")
Heartbeat CPU 0 instructions: 10000003 cycles: 3989156 heartbeat IPC: 2.507 cumulative IPC: 2.507 (Simulation time: 00 hr 09 min 18 sec)
*** Reached end of trace: (5, "traces/canneal_big0.champsimtrace")
Heartbeat CPU 5 instructions: 10000003 cycles: 3993607 heartbeat IPC: 2.504 cumulative IPC: 2.504 (Simulation time: 00 hr 09 min 18 sec)
*** Reached end of trace: (1, "traces/canneal_big1.champsimtrace")
*** Reached end of trace: (6, "traces/canneal_big1.champsimtrace")
*** Reached end of trace: (4, "traces/canneal_big4.champsimtrace")
*** Reached end of trace: (3, "traces/canneal_big3.champsimtrace")
Heartbeat CPU 4 instructions: 20000001 cycles: 5003631 heartbeat IPC: 4 cumulative IPC: 3.997 (Simulation time: 00 hr 11 min 49 sec)
Heartbeat CPU 3 instructions: 20000001 cycles: 5003657 heartbeat IPC: 4 cumulative IPC: 3.997 (Simulation time: 00 hr 11 min 49 sec)
*** Reached end of trace: (2, "traces/canneal_big2.champsimtrace")
*** Reached end of trace: (7, "traces/canneal_big2.champsimtrace")
Heartbeat CPU 2 instructions: 20000001 cycles: 5003806 heartbeat IPC: 4 cumulative IPC: 3.997 (Simulation time: 00 hr 11 min 49 sec)
Heartbeat CPU 7 instructions: 20000001 cycles: 5003813 heartbeat IPC: 4 cumulative IPC: 3.997 (Simulation time: 00 hr 11 min 49 sec)
*** Reached end of trace: (0, "traces/canneal_big0.champsimtrace")
*** Reached end of trace: (5, "traces/canneal_big0.champsimtrace")
*** Reached end of trace: (4, "traces/canneal_big4.champsimtrace")
*** Reached end of trace: (3, "traces/canneal_big3.champsimtrace")
*** Reached end of trace: (2, "traces/canneal_big2.champsimtrace")
*** Reached end of trace: (7, "traces/canneal_big2.champsimtrace")
*** Reached end of trace: (1, "traces/canneal_big1.champsimtrace")
Heartbeat CPU 1 instructions: 10000002 cycles: 7298919 heartbeat IPC: 1.37 cumulative IPC: 1.37 (Simulation time: 00 hr 17 min 23 sec)
*** Reached end of trace: (6, "traces/canneal_big1.champsimtrace")
Heartbeat CPU 6 instructions: 10000002 cycles: 7306601 heartbeat IPC: 1.369 cumulative IPC: 1.369 (Simulation time: 00 hr 17 min 24 sec)
*** Reached end of trace: (4, "traces/canneal_big4.champsimtrace")
*** Reached end of trace: (3, "traces/canneal_big3.champsimtrace")
Heartbeat CPU 4 instructions: 30000001 cycles: 7503631 heartbeat IPC: 4 cumulative IPC: 3.998 (Simulation time: 00 hr 17 min 57 sec)
Heartbeat CPU 3 instructions: 30000001 cycles: 7503657 heartbeat IPC: 4 cumulative IPC: 3.998 (Simulation time: 00 hr 17 min 57 sec)
*** Reached end of trace: (2, "traces/canneal_big2.champsimtrace")
*** Reached end of trace: (7, "traces/canneal_big2.champsimtrace")
Heartbeat CPU 2 instructions: 30000001 cycles: 7503806 heartbeat IPC: 4 cumulative IPC: 3.998 (Simulation time: 00 hr 17 min 57 sec)
Heartbeat CPU 7 instructions: 30000001 cycles: 7503813 heartbeat IPC: 4 cumulative IPC: 3.998 (Simulation time: 00 hr 17 min 57 sec)
*** Reached end of trace: (0, "traces/canneal_big0.champsimtrace")
Heartbeat CPU 0 instructions: 20000006 cycles: 7835345 heartbeat IPC: 2.6 cumulative IPC: 2.553 (Simulation time: 00 hr 18 min 43 sec)
*** Reached end of trace: (5, "traces/canneal_big0.champsimtrace")
Heartbeat CPU 5 instructions: 20000006 cycles: 7847244 heartbeat IPC: 2.595 cumulative IPC: 2.549 (Simulation time: 00 hr 18 min 45 sec)
*** Reached end of trace: (4, "traces/canneal_big4.champsimtrace")
*** Reached end of trace: (3, "traces/canneal_big3.champsimtrace")
*** Reached end of trace: (2, "traces/canneal_big2.champsimtrace")
*** Reached end of trace: (7, "traces/canneal_big2.champsimtrace")
*** Reached end of trace: (0, "traces/canneal_big0.champsimtrace")
*** Reached end of trace: (5, "traces/canneal_big0.champsimtrace")
*** Reached end of trace: (4, "traces/canneal_big4.champsimtrace")
*** Reached end of trace: (3, "traces/canneal_big3.champsimtrace")
Heartbeat CPU 4 instructions: 40000001 cycles: 10003631 heartbeat IPC: 4 cumulative IPC: 3.999 (Simulation time: 00 hr 24 min 13 sec)
Heartbeat CPU 3 instructions: 40000001 cycles: 10003657 heartbeat IPC: 4 cumulative IPC: 3.999 (Simulation time: 00 hr 24 min 13 sec)
*** Reached end of trace: (2, "traces/canneal_big2.champsimtrace")
*** Reached end of trace: (7, "traces/canneal_big2.champsimtrace")
Heartbeat CPU 2 instructions: 40000001 cycles: 10003806 heartbeat IPC: 4 cumulative IPC: 3.998 (Simulation time: 00 hr 24 min 13 sec)
Heartbeat CPU 7 instructions: 40000001 cycles: 10003813 heartbeat IPC: 4 cumulative IPC: 3.998 (Simulation time: 00 hr 24 min 13 sec)
*** Reached end of trace: (1, "traces/canneal_big1.champsimtrace")
*** Reached end of trace: (6, "traces/canneal_big1.champsimtrace")
*** Reached end of trace: (4, "traces/canneal_big4.champsimtrace")
*** Reached end of trace: (3, "traces/canneal_big3.champsimtrace")
*** Reached end of trace: (2, "traces/canneal_big2.champsimtrace")
*** Reached end of trace: (7, "traces/canneal_big2.champsimtrace")
*** Reached end of trace: (0, "traces/canneal_big0.champsimtrace")
Heartbeat CPU 0 instructions: 30000009 cycles: 11681456 heartbeat IPC: 2.6 cumulative IPC: 2.568 (Simulation time: 00 hr 28 min 29 sec)
*** Reached end of trace: (5, "traces/canneal_big0.champsimtrace")
Heartbeat CPU 5 instructions: 30000009 cycles: 11701527 heartbeat IPC: 2.595 cumulative IPC: 2.564 (Simulation time: 00 hr 28 min 32 sec)
*** Reached end of trace: (4, "traces/canneal_big4.champsimtrace")
*** Reached end of trace: (3, "traces/canneal_big3.champsimtrace")
Heartbeat CPU 4 instructions: 50000001 cycles: 12503631 heartbeat IPC: 4 cumulative IPC: 3.999 (Simulation time: 00 hr 30 min 32 sec)
Warmup finished CPU 4 instructions: 50000001 cycles: 12503631 cumulative IPC: 3.999 (Simulation time: 00 hr 30 min 32 sec)
Heartbeat CPU 3 instructions: 50000001 cycles: 12503657 heartbeat IPC: 4 cumulative IPC: 3.999 (Simulation time: 00 hr 30 min 32 sec)
Warmup finished CPU 3 instructions: 50000001 cycles: 12503657 cumulative IPC: 3.999 (Simulation time: 00 hr 30 min 32 sec)
*** Reached end of trace: (2, "traces/canneal_big2.champsimtrace")
*** Reached end of trace: (7, "traces/canneal_big2.champsimtrace")
Heartbeat CPU 2 instructions: 50000001 cycles: 12503806 heartbeat IPC: 4 cumulative IPC: 3.999 (Simulation time: 00 hr 30 min 32 sec)
Warmup finished CPU 2 instructions: 50000001 cycles: 12503806 cumulative IPC: 3.999 (Simulation time: 00 hr 30 min 32 sec)
Heartbeat CPU 7 instructions: 50000001 cycles: 12503813 heartbeat IPC: 4 cumulative IPC: 3.999 (Simulation time: 00 hr 30 min 32 sec)
Warmup finished CPU 7 instructions: 50000001 cycles: 12503813 cumulative IPC: 3.999 (Simulation time: 00 hr 30 min 32 sec)
*** Reached end of trace: (1, "traces/canneal_big1.champsimtrace")
Heartbeat CPU 1 instructions: 20000004 cycles: 12987323 heartbeat IPC: 1.758 cumulative IPC: 1.54 (Simulation time: 00 hr 31 min 42 sec)
*** Reached end of trace: (6, "traces/canneal_big1.champsimtrace")
Heartbeat CPU 6 instructions: 20000004 cycles: 13019685 heartbeat IPC: 1.75 cumulative IPC: 1.536 (Simulation time: 00 hr 31 min 47 sec)
*** Reached end of trace: (0, "traces/canneal_big0.champsimtrace")
*** Reached end of trace: (5, "traces/canneal_big0.champsimtrace")
*** Reached end of trace: (4, "traces/canneal_big4.champsimtrace")
*** Reached end of trace: (3, "traces/canneal_big3.champsimtrace")
*** Reached end of trace: (2, "traces/canneal_big2.champsimtrace")
*** Reached end of trace: (7, "traces/canneal_big2.champsimtrace")
*** Reached end of trace: (4, "traces/canneal_big4.champsimtrace")
*** Reached end of trace: (3, "traces/canneal_big3.champsimtrace")
Heartbeat CPU 4 instructions: 60000001 cycles: 15003631 heartbeat IPC: 4 cumulative IPC: 3.999 (Simulation time: 00 hr 36 min 36 sec)
Heartbeat CPU 3 instructions: 60000001 cycles: 15003657 heartbeat IPC: 4 cumulative IPC: 3.999 (Simulation time: 00 hr 36 min 36 sec)
*** Reached end of trace: (2, "traces/canneal_big2.champsimtrace")
*** Reached end of trace: (7, "traces/canneal_big2.champsimtrace")
Heartbeat CPU 2 instructions: 60000001 cycles: 15003806 heartbeat IPC: 4 cumulative IPC: 3.999 (Simulation time: 00 hr 36 min 36 sec)
Heartbeat CPU 7 instructions: 60000001 cycles: 15003813 heartbeat IPC: 4 cumulative IPC: 3.999 (Simulation time: 00 hr 36 min 36 sec)
*** Reached end of trace: (0, "traces/canneal_big0.champsimtrace")
Heartbeat CPU 0 instructions: 40000012 cycles: 15527567 heartbeat IPC: 2.6 cumulative IPC: 2.576 (Simulation time: 00 hr 37 min 55 sec)
*** Reached end of trace: (5, "traces/canneal_big0.champsimtrace")
Heartbeat CPU 5 instructions: 40000012 cycles: 15555171 heartbeat IPC: 2.595 cumulative IPC: 2.571 (Simulation time: 00 hr 37 min 59 sec)
*** Reached end of trace: (1, "traces/canneal_big1.champsimtrace")
*** Reached end of trace: (6, "traces/canneal_big1.champsimtrace")
*** Reached end of trace: (4, "traces/canneal_big4.champsimtrace")
*** Reached end of trace: (3, "traces/canneal_big3.champsimtrace")
*** Reached end of trace: (2, "traces/canneal_big2.champsimtrace")
*** Reached end of trace: (7, "traces/canneal_big2.champsimtrace")
*** Reached end of trace: (0, "traces/canneal_big0.champsimtrace")
*** Reached end of trace: (5, "traces/canneal_big0.champsimtrace")
*** Reached end of trace: (4, "traces/canneal_big4.champsimtrace")
*** Reached end of trace: (3, "traces/canneal_big3.champsimtrace")
Heartbeat CPU 4 instructions: 70000001 cycles: 17503631 heartbeat IPC: 4 cumulative IPC: 3.999 (Simulation time: 00 hr 42 min 34 sec)
Heartbeat CPU 3 instructions: 70000001 cycles: 17503657 heartbeat IPC: 4 cumulative IPC: 3.999 (Simulation time: 00 hr 42 min 34 sec)
*** Reached end of trace: (2, "traces/canneal_big2.champsimtrace")
*** Reached end of trace: (7, "traces/canneal_big2.champsimtrace")
Heartbeat CPU 2 instructions: 70000001 cycles: 17503806 heartbeat IPC: 4 cumulative IPC: 3.999 (Simulation time: 00 hr 42 min 34 sec)
Heartbeat CPU 7 instructions: 70000001 cycles: 17503813 heartbeat IPC: 4 cumulative IPC: 3.999 (Simulation time: 00 hr 42 min 34 sec)
*** Reached end of trace: (1, "traces/canneal_big1.champsimtrace")
Heartbeat CPU 1 instructions: 30000004 cycles: 18675674 heartbeat IPC: 1.758 cumulative IPC: 1.606 (Simulation time: 00 hr 45 min 23 sec)
*** Reached end of trace: (6, "traces/canneal_big1.champsimtrace")
Heartbeat CPU 6 instructions: 30000004 cycles: 18742166 heartbeat IPC: 1.747 cumulative IPC: 1.601 (Simulation time: 00 hr 45 min 32 sec)
*** Reached end of trace: (4, "traces/canneal_big4.champsimtrace")
*** Reached end of trace: (3, "traces/canneal_big3.champsimtrace")
*** Reached end of trace: (2, "traces/canneal_big2.champsimtrace")
*** Reached end of trace: (7, "traces/canneal_big2.champsimtrace")
*** Reached end of trace: (0, "traces/canneal_big0.champsimtrace")
Warmup finished CPU 0 instructions: 50000000 cycles: 19373675 cumulative IPC: 2.581 (Simulation time: 00 hr 47 min 00 sec)
Heartbeat CPU 0 instructions: 50000015 cycles: 19373678 heartbeat IPC: 2.6 cumulative IPC: 2.581 (Simulation time: 00 hr 47 min 00 sec)
*** Reached end of trace: (5, "traces/canneal_big0.champsimtrace")
Warmup finished CPU 5 instructions: 50000000 cycles: 19409046 cumulative IPC: 2.576 (Simulation time: 00 hr 47 min 05 sec)
Heartbeat CPU 5 instructions: 50000015 cycles: 19409049 heartbeat IPC: 2.595 cumulative IPC: 2.576 (Simulation time: 00 hr 47 min 05 sec)
*** Reached end of trace: (4, "traces/canneal_big4.champsimtrace")
*** Reached end of trace: (3, "traces/canneal_big3.champsimtrace")
Heartbeat CPU 4 instructions: 80000001 cycles: 20003631 heartbeat IPC: 4 cumulative IPC: 3.999 (Simulation time: 00 hr 48 min 33 sec)
Heartbeat CPU 3 instructions: 80000001 cycles: 20003657 heartbeat IPC: 4 cumulative IPC: 3.999 (Simulation time: 00 hr 48 min 33 sec)
*** Reached end of trace: (2, "traces/canneal_big2.champsimtrace")
*** Reached end of trace: (7, "traces/canneal_big2.champsimtrace")
Heartbeat CPU 2 instructions: 80000001 cycles: 20003806 heartbeat IPC: 4 cumulative IPC: 3.999 (Simulation time: 00 hr 48 min 33 sec)
Heartbeat CPU 7 instructions: 80000001 cycles: 20003813 heartbeat IPC: 4 cumulative IPC: 3.999 (Simulation time: 00 hr 48 min 33 sec)
*** Reached end of trace: (4, "traces/canneal_big4.champsimtrace")
*** Reached end of trace: (3, "traces/canneal_big3.champsimtrace")
*** Reached end of trace: (2, "traces/canneal_big2.champsimtrace")
*** Reached end of trace: (7, "traces/canneal_big2.champsimtrace")
*** Reached end of trace: (0, "traces/canneal_big0.champsimtrace")
*** Reached end of trace: (5, "traces/canneal_big0.champsimtrace")
*** Reached end of trace: (1, "traces/canneal_big1.champsimtrace")
*** Reached end of trace: (6, "traces/canneal_big1.champsimtrace")
*** Reached end of trace: (4, "traces/canneal_big4.champsimtrace")
*** Reached end of trace: (3, "traces/canneal_big3.champsimtrace")
Heartbeat CPU 4 instructions: 90000001 cycles: 22503631 heartbeat IPC: 4 cumulative IPC: 3.999 (Simulation time: 00 hr 54 min 32 sec)
Heartbeat CPU 3 instructions: 90000001 cycles: 22503657 heartbeat IPC: 4 cumulative IPC: 3.999 (Simulation time: 00 hr 54 min 32 sec)
*** Reached end of trace: (2, "traces/canneal_big2.champsimtrace")
*** Reached end of trace: (7, "traces/canneal_big2.champsimtrace")
Heartbeat CPU 2 instructions: 90000001 cycles: 22503806 heartbeat IPC: 4 cumulative IPC: 3.999 (Simulation time: 00 hr 54 min 32 sec)
Heartbeat CPU 7 instructions: 90000001 cycles: 22503813 heartbeat IPC: 4 cumulative IPC: 3.999 (Simulation time: 00 hr 54 min 32 sec)
*** Reached end of trace: (0, "traces/canneal_big0.champsimtrace")
Heartbeat CPU 0 instructions: 60000018 cycles: 23219789 heartbeat IPC: 2.6 cumulative IPC: 2.584 (Simulation time: 00 hr 56 min 14 sec)
*** Reached end of trace: (5, "traces/canneal_big0.champsimtrace")
Heartbeat CPU 5 instructions: 60000018 cycles: 23263260 heartbeat IPC: 2.595 cumulative IPC: 2.579 (Simulation time: 00 hr 56 min 20 sec)
*** Reached end of trace: (4, "traces/canneal_big4.champsimtrace")
*** Reached end of trace: (3, "traces/canneal_big3.champsimtrace")
*** Reached end of trace: (2, "traces/canneal_big2.champsimtrace")
*** Reached end of trace: (7, "traces/canneal_big2.champsimtrace")
*** Reached end of trace: (1, "traces/canneal_big1.champsimtrace")
Heartbeat CPU 1 instructions: 40000006 cycles: 24364066 heartbeat IPC: 1.758 cumulative IPC: 1.642 (Simulation time: 00 hr 59 min 08 sec)
*** Reached end of trace: (6, "traces/canneal_big1.champsimtrace")
Heartbeat CPU 6 instructions: 40000006 cycles: 24468680 heartbeat IPC: 1.746 cumulative IPC: 1.635 (Simulation time: 00 hr 59 min 23 sec)
*** Reached end of trace: (4, "traces/canneal_big4.champsimtrace")
*** Reached end of trace: (3, "traces/canneal_big3.champsimtrace")
Heartbeat CPU 4 instructions: 100000001 cycles: 25003631 heartbeat IPC: 4 cumulative IPC: 3.999 (Simulation time: 01 hr 00 min 43 sec)
Heartbeat CPU 3 instructions: 100000001 cycles: 25003657 heartbeat IPC: 4 cumulative IPC: 3.999 (Simulation time: 01 hr 00 min 43 sec)
*** Reached end of trace: (2, "traces/canneal_big2.champsimtrace")
*** Reached end of trace: (7, "traces/canneal_big2.champsimtrace")
Heartbeat CPU 2 instructions: 100000001 cycles: 25003806 heartbeat IPC: 4 cumulative IPC: 3.999 (Simulation time: 01 hr 00 min 43 sec)
Heartbeat CPU 7 instructions: 100000001 cycles: 25003813 heartbeat IPC: 4 cumulative IPC: 3.999 (Simulation time: 01 hr 00 min 43 sec)
*** Reached end of trace: (0, "traces/canneal_big0.champsimtrace")
*** Reached end of trace: (5, "traces/canneal_big0.champsimtrace")
*** Reached end of trace: (4, "traces/canneal_big4.champsimtrace")
*** Reached end of trace: (3, "traces/canneal_big3.champsimtrace")
*** Reached end of trace: (2, "traces/canneal_big2.champsimtrace")
*** Reached end of trace: (7, "traces/canneal_big2.champsimtrace")
*** Reached end of trace: (0, "traces/canneal_big0.champsimtrace")
Heartbeat CPU 0 instructions: 70000021 cycles: 27065870 heartbeat IPC: 2.6 cumulative IPC: 2.586 (Simulation time: 01 hr 05 min 52 sec)
*** Reached end of trace: (5, "traces/canneal_big0.champsimtrace")
Heartbeat CPU 5 instructions: 70000021 cycles: 27117086 heartbeat IPC: 2.595 cumulative IPC: 2.581 (Simulation time: 01 hr 06 min 00 sec)
*** Reached end of trace: (1, "traces/canneal_big1.champsimtrace")
*** Reached end of trace: (6, "traces/canneal_big1.champsimtrace")
*** Reached end of trace: (4, "traces/canneal_big4.champsimtrace")
*** Reached end of trace: (3, "traces/canneal_big3.champsimtrace")
Heartbeat CPU 4 instructions: 110000001 cycles: 27503631 heartbeat IPC: 4 cumulative IPC: 3.999 (Simulation time: 01 hr 07 min 01 sec)
Heartbeat CPU 3 instructions: 110000001 cycles: 27503657 heartbeat IPC: 4 cumulative IPC: 3.999 (Simulation time: 01 hr 07 min 01 sec)
*** Reached end of trace: (2, "traces/canneal_big2.champsimtrace")
*** Reached end of trace: (7, "traces/canneal_big2.champsimtrace")
Heartbeat CPU 2 instructions: 110000001 cycles: 27503806 heartbeat IPC: 4 cumulative IPC: 3.999 (Simulation time: 01 hr 07 min 01 sec)
Heartbeat CPU 7 instructions: 110000001 cycles: 27503813 heartbeat IPC: 4 cumulative IPC: 3.999 (Simulation time: 01 hr 07 min 01 sec)
*** Reached end of trace: (4, "traces/canneal_big4.champsimtrace")
*** Reached end of trace: (3, "traces/canneal_big3.champsimtrace")
*** Reached end of trace: (2, "traces/canneal_big2.champsimtrace")
*** Reached end of trace: (7, "traces/canneal_big2.champsimtrace")
*** Reached end of trace: (0, "traces/canneal_big0.champsimtrace")
*** Reached end of trace: (5, "traces/canneal_big0.champsimtrace")
*** Reached end of trace: (4, "traces/canneal_big4.champsimtrace")
*** Reached end of trace: (3, "traces/canneal_big3.champsimtrace")
Heartbeat CPU 4 instructions: 120000001 cycles: 30003631 heartbeat IPC: 4 cumulative IPC: 4 (Simulation time: 01 hr 12 min 58 sec)
Heartbeat CPU 3 instructions: 120000001 cycles: 30003657 heartbeat IPC: 4 cumulative IPC: 4 (Simulation time: 01 hr 12 min 58 sec)
*** Reached end of trace: (2, "traces/canneal_big2.champsimtrace")
*** Reached end of trace: (7, "traces/canneal_big2.champsimtrace")
Heartbeat CPU 2 instructions: 120000001 cycles: 30003806 heartbeat IPC: 4 cumulative IPC: 3.999 (Simulation time: 01 hr 12 min 58 sec)
Heartbeat CPU 7 instructions: 120000001 cycles: 30003813 heartbeat IPC: 4 cumulative IPC: 3.999 (Simulation time: 01 hr 12 min 58 sec)
*** Reached end of trace: (1, "traces/canneal_big1.champsimtrace")
Warmup finished CPU 1 instructions: 50000000 cycles: 30052399 cumulative IPC: 1.664 (Simulation time: 01 hr 13 min 05 sec)
Heartbeat CPU 1 instructions: 50000008 cycles: 30052422 heartbeat IPC: 1.758 cumulative IPC: 1.664 (Simulation time: 01 hr 13 min 05 sec)
*** Reached end of trace: (6, "traces/canneal_big1.champsimtrace")
Warmup finished CPU 6 instructions: 50000000 cycles: 30196601 cumulative IPC: 1.656 (Simulation time: 01 hr 13 min 25 sec)
Warmup complete CPU 7 instructions: 120771153 cycles: 30196601 cumulative IPC: 3.999 (Simulation time: 01 hr 13 min 25 sec)
Warmup complete CPU 6 instructions: 50000000 cycles: 30196601 cumulative IPC: 1.656 (Simulation time: 01 hr 13 min 25 sec)
Warmup complete CPU 5 instructions: 78133484 cycles: 30196601 cumulative IPC: 2.587 (Simulation time: 01 hr 13 min 25 sec)
Warmup complete CPU 4 instructions: 120771881 cycles: 30196601 cumulative IPC: 4 (Simulation time: 01 hr 13 min 25 sec)
Warmup complete CPU 3 instructions: 120771777 cycles: 30196601 cumulative IPC: 4 (Simulation time: 01 hr 13 min 25 sec)
Warmup complete CPU 2 instructions: 120771181 cycles: 30196601 cumulative IPC: 3.999 (Simulation time: 01 hr 13 min 25 sec)
Warmup complete CPU 1 instructions: 50216238 cycles: 30196601 cumulative IPC: 1.663 (Simulation time: 01 hr 13 min 25 sec)
Warmup complete CPU 0 instructions: 78271899 cycles: 30196601 cumulative IPC: 2.592 (Simulation time: 01 hr 13 min 25 sec)
Heartbeat CPU 6 instructions: 50000008 cycles: 30196972 heartbeat IPC: 1.746 cumulative IPC: 0.02156 (Simulation time: 01 hr 13 min 25 sec)
*** Reached end of trace: (0, "traces/canneal_big0.champsimtrace")
Heartbeat CPU 0 instructions: 80000024 cycles: 30832498 heartbeat IPC: 2.655 cumulative IPC: 2.718 (Simulation time: 01 hr 14 min 58 sec)
*** Reached end of trace: (5, "traces/canneal_big0.champsimtrace")
Heartbeat CPU 5 instructions: 80000024 cycles: 30897724 heartbeat IPC: 2.645 cumulative IPC: 2.662 (Simulation time: 01 hr 15 min 08 sec)
*** Reached end of trace: (4, "traces/canneal_big4.champsimtrace")
*** Reached end of trace: (3, "traces/canneal_big3.champsimtrace")
*** Reached end of trace: (2, "traces/canneal_big2.champsimtrace")
*** Reached end of trace: (7, "traces/canneal_big2.champsimtrace")
*** Reached end of trace: (4, "traces/canneal_big4.champsimtrace")
*** Reached end of trace: (3, "traces/canneal_big3.champsimtrace")
Heartbeat CPU 4 instructions: 130000001 cycles: 32503631 heartbeat IPC: 4 cumulative IPC: 4 (Simulation time: 01 hr 18 min 56 sec)
Heartbeat CPU 3 instructions: 130000001 cycles: 32503657 heartbeat IPC: 4 cumulative IPC: 4 (Simulation time: 01 hr 18 min 56 sec)
*** Reached end of trace: (2, "traces/canneal_big2.champsimtrace")
*** Reached end of trace: (7, "traces/canneal_big2.champsimtrace")
Heartbeat CPU 2 instructions: 130000001 cycles: 32503806 heartbeat IPC: 4 cumulative IPC: 4 (Simulation time: 01 hr 18 min 56 sec)
Heartbeat CPU 7 instructions: 130000001 cycles: 32503813 heartbeat IPC: 4 cumulative IPC: 4 (Simulation time: 01 hr 18 min 56 sec)
*** Reached end of trace: (0, "traces/canneal_big0.champsimtrace")
*** Reached end of trace: (5, "traces/canneal_big0.champsimtrace")
*** Reached end of trace: (4, "traces/canneal_big4.champsimtrace")
*** Reached end of trace: (3, "traces/canneal_big3.champsimtrace")
*** Reached end of trace: (2, "traces/canneal_big2.champsimtrace")
*** Reached end of trace: (7, "traces/canneal_big2.champsimtrace")
*** Reached end of trace: (4, "traces/canneal_big4.champsimtrace")
*** Reached end of trace: (3, "traces/canneal_big3.champsimtrace")
Heartbeat CPU 4 instructions: 140000001 cycles: 35003631 heartbeat IPC: 4 cumulative IPC: 4 (Simulation time: 01 hr 25 min 19 sec)
Heartbeat CPU 3 instructions: 140000001 cycles: 35003657 heartbeat IPC: 4 cumulative IPC: 4 (Simulation time: 01 hr 25 min 19 sec)
*** Reached end of trace: (2, "traces/canneal_big2.champsimtrace")
*** Reached end of trace: (7, "traces/canneal_big2.champsimtrace")
Heartbeat CPU 2 instructions: 140000001 cycles: 35003806 heartbeat IPC: 4 cumulative IPC: 4 (Simulation time: 01 hr 25 min 19 sec)
Heartbeat CPU 7 instructions: 140000001 cycles: 35003813 heartbeat IPC: 4 cumulative IPC: 4 (Simulation time: 01 hr 25 min 19 sec)
*** Reached end of trace: (0, "traces/canneal_big0.champsimtrace")
Heartbeat CPU 0 instructions: 90000027 cycles: 35203644 heartbeat IPC: 2.288 cumulative IPC: 2.342 (Simulation time: 01 hr 26 min 04 sec)
*** Reached end of trace: (5, "traces/canneal_big0.champsimtrace")
Heartbeat CPU 5 instructions: 90000027 cycles: 35232482 heartbeat IPC: 2.307 cumulative IPC: 2.356 (Simulation time: 01 hr 26 min 11 sec)
*** Reached end of trace: (4, "traces/canneal_big4.champsimtrace")
*** Reached end of trace: (3, "traces/canneal_big3.champsimtrace")
*** Reached end of trace: (2, "traces/canneal_big2.champsimtrace")
*** Reached end of trace: (7, "traces/canneal_big2.champsimtrace")
*** Reached end of trace: (0, "traces/canneal_big0.champsimtrace")
*** Reached end of trace: (5, "traces/canneal_big0.champsimtrace")
*** Reached end of trace: (4, "traces/canneal_big4.champsimtrace")
*** Reached end of trace: (3, "traces/canneal_big3.champsimtrace")
Heartbeat CPU 4 instructions: 150000001 cycles: 37503631 heartbeat IPC: 4 cumulative IPC: 4 (Simulation time: 01 hr 34 min 39 sec)
Heartbeat CPU 3 instructions: 150000001 cycles: 37503657 heartbeat IPC: 4 cumulative IPC: 4 (Simulation time: 01 hr 34 min 39 sec)
*** Reached end of trace: (2, "traces/canneal_big2.champsimtrace")
*** Reached end of trace: (7, "traces/canneal_big2.champsimtrace")
Heartbeat CPU 2 instructions: 150000001 cycles: 37503806 heartbeat IPC: 4 cumulative IPC: 4 (Simulation time: 01 hr 34 min 39 sec)
Heartbeat CPU 7 instructions: 150000001 cycles: 37503813 heartbeat IPC: 4 cumulative IPC: 4 (Simulation time: 01 hr 34 min 39 sec)
*** Reached end of trace: (4, "traces/canneal_big4.champsimtrace")
*** Reached end of trace: (3, "traces/canneal_big3.champsimtrace")
*** Reached end of trace: (2, "traces/canneal_big2.champsimtrace")
*** Reached end of trace: (7, "traces/canneal_big2.champsimtrace")
*** Reached end of trace: (0, "traces/canneal_big0.champsimtrace")
Heartbeat CPU 0 instructions: 100000030 cycles: 39568500 heartbeat IPC: 2.291 cumulative IPC: 2.318 (Simulation time: 01 hr 42 min 20 sec)
*** Reached end of trace: (5, "traces/canneal_big0.champsimtrace")
Heartbeat CPU 5 instructions: 100000030 cycles: 39597543 heartbeat IPC: 2.291 cumulative IPC: 2.326 (Simulation time: 01 hr 42 min 27 sec)
*** Reached end of trace: (4, "traces/canneal_big4.champsimtrace")
*** Reached end of trace: (3, "traces/canneal_big3.champsimtrace")
Heartbeat CPU 4 instructions: 160000001 cycles: 40003631 heartbeat IPC: 4 cumulative IPC: 4 (Simulation time: 01 hr 43 min 59 sec)
Heartbeat CPU 3 instructions: 160000001 cycles: 40003657 heartbeat IPC: 4 cumulative IPC: 4 (Simulation time: 01 hr 43 min 59 sec)
*** Reached end of trace: (2, "traces/canneal_big2.champsimtrace")
*** Reached end of trace: (7, "traces/canneal_big2.champsimtrace")
Heartbeat CPU 2 instructions: 160000001 cycles: 40003806 heartbeat IPC: 4 cumulative IPC: 4 (Simulation time: 01 hr 43 min 59 sec)
Heartbeat CPU 7 instructions: 160000001 cycles: 40003813 heartbeat IPC: 4 cumulative IPC: 4 (Simulation time: 01 hr 43 min 59 sec)
*** Reached end of trace: (4, "traces/canneal_big4.champsimtrace")
*** Reached end of trace: (3, "traces/canneal_big3.champsimtrace")
*** Reached end of trace: (2, "traces/canneal_big2.champsimtrace")
*** Reached end of trace: (7, "traces/canneal_big2.champsimtrace")
*** Reached end of trace: (0, "traces/canneal_big0.champsimtrace")
*** Reached end of trace: (5, "traces/canneal_big0.champsimtrace")
*** Reached end of trace: (4, "traces/canneal_big4.champsimtrace")
*** Reached end of trace: (3, "traces/canneal_big3.champsimtrace")
Heartbeat CPU 4 instructions: 170000001 cycles: 42503631 heartbeat IPC: 4 cumulative IPC: 4 (Simulation time: 01 hr 53 min 16 sec)
Heartbeat CPU 3 instructions: 170000001 cycles: 42503657 heartbeat IPC: 4 cumulative IPC: 4 (Simulation time: 01 hr 53 min 16 sec)
*** Reached end of trace: (2, "traces/canneal_big2.champsimtrace")
*** Reached end of trace: (7, "traces/canneal_big2.champsimtrace")
Heartbeat CPU 2 instructions: 170000001 cycles: 42503806 heartbeat IPC: 4 cumulative IPC: 4 (Simulation time: 01 hr 53 min 16 sec)
Heartbeat CPU 7 instructions: 170000001 cycles: 42503813 heartbeat IPC: 4 cumulative IPC: 4 (Simulation time: 01 hr 53 min 16 sec)
*** Reached end of trace: (4, "traces/canneal_big4.champsimtrace")
*** Reached end of trace: (3, "traces/canneal_big3.champsimtrace")
*** Reached end of trace: (2, "traces/canneal_big2.champsimtrace")
*** Reached end of trace: (7, "traces/canneal_big2.champsimtrace")
*** Reached end of trace: (0, "traces/canneal_big0.champsimtrace")
Heartbeat CPU 0 instructions: 110000033 cycles: 43929623 heartbeat IPC: 2.293 cumulative IPC: 2.31 (Simulation time: 01 hr 58 min 35 sec)
*** Reached end of trace: (5, "traces/canneal_big0.champsimtrace")
Heartbeat CPU 5 instructions: 110000033 cycles: 43958464 heartbeat IPC: 2.293 cumulative IPC: 2.316 (Simulation time: 01 hr 58 min 41 sec)
*** Reached end of trace: (1, "traces/canneal_big1.champsimtrace")
*** Reached end of trace: (4, "traces/canneal_big4.champsimtrace")
*** Reached end of trace: (3, "traces/canneal_big3.champsimtrace")
Heartbeat CPU 4 instructions: 180000001 cycles: 45003631 heartbeat IPC: 4 cumulative IPC: 4 (Simulation time: 02 hr 02 min 34 sec)
Heartbeat CPU 3 instructions: 180000001 cycles: 45003657 heartbeat IPC: 4 cumulative IPC: 4 (Simulation time: 02 hr 02 min 34 sec)
*** Reached end of trace: (2, "traces/canneal_big2.champsimtrace")
*** Reached end of trace: (7, "traces/canneal_big2.champsimtrace")
Heartbeat CPU 2 instructions: 180000001 cycles: 45003806 heartbeat IPC: 4 cumulative IPC: 4 (Simulation time: 02 hr 02 min 34 sec)
Heartbeat CPU 7 instructions: 180000001 cycles: 45003813 heartbeat IPC: 4 cumulative IPC: 4 (Simulation time: 02 hr 02 min 34 sec)
*** Reached end of trace: (6, "traces/canneal_big1.champsimtrace")
*** Reached end of trace: (0, "traces/canneal_big0.champsimtrace")
*** Reached end of trace: (5, "traces/canneal_big0.champsimtrace")
*** Reached end of trace: (4, "traces/canneal_big4.champsimtrace")
*** Reached end of trace: (3, "traces/canneal_big3.champsimtrace")
*** Reached end of trace: (2, "traces/canneal_big2.champsimtrace")
*** Reached end of trace: (7, "traces/canneal_big2.champsimtrace")
*** Reached end of trace: (4, "traces/canneal_big4.champsimtrace")
*** Reached end of trace: (3, "traces/canneal_big3.champsimtrace")
Heartbeat CPU 4 instructions: 190000001 cycles: 47503631 heartbeat IPC: 4 cumulative IPC: 4 (Simulation time: 02 hr 11 min 55 sec)
Heartbeat CPU 3 instructions: 190000001 cycles: 47503657 heartbeat IPC: 4 cumulative IPC: 4 (Simulation time: 02 hr 11 min 55 sec)
*** Reached end of trace: (2, "traces/canneal_big2.champsimtrace")
*** Reached end of trace: (7, "traces/canneal_big2.champsimtrace")
Heartbeat CPU 2 instructions: 190000001 cycles: 47503806 heartbeat IPC: 4 cumulative IPC: 4 (Simulation time: 02 hr 11 min 55 sec)
Heartbeat CPU 7 instructions: 190000001 cycles: 47503813 heartbeat IPC: 4 cumulative IPC: 4 (Simulation time: 02 hr 11 min 55 sec)
*** Reached end of trace: (0, "traces/canneal_big0.champsimtrace")
Heartbeat CPU 0 instructions: 120000036 cycles: 48301064 heartbeat IPC: 2.288 cumulative IPC: 2.305 (Simulation time: 02 hr 14 min 53 sec)
*** Reached end of trace: (5, "traces/canneal_big0.champsimtrace")
Heartbeat CPU 5 instructions: 120000036 cycles: 48329620 heartbeat IPC: 2.288 cumulative IPC: 2.309 (Simulation time: 02 hr 15 min 00 sec)
*** Reached end of trace: (4, "traces/canneal_big4.champsimtrace")
*** Reached end of trace: (3, "traces/canneal_big3.champsimtrace")
*** Reached end of trace: (2, "traces/canneal_big2.champsimtrace")
*** Reached end of trace: (7, "traces/canneal_big2.champsimtrace")
*** Reached end of trace: (4, "traces/canneal_big4.champsimtrace")
*** Reached end of trace: (3, "traces/canneal_big3.champsimtrace")
Heartbeat CPU 4 instructions: 200000001 cycles: 50003631 heartbeat IPC: 4 cumulative IPC: 4 (Simulation time: 02 hr 21 min 10 sec)
Heartbeat CPU 3 instructions: 200000001 cycles: 50003657 heartbeat IPC: 4 cumulative IPC: 4 (Simulation time: 02 hr 21 min 10 sec)
*** Reached end of trace: (2, "traces/canneal_big2.champsimtrace")
*** Reached end of trace: (7, "traces/canneal_big2.champsimtrace")
Heartbeat CPU 2 instructions: 200000001 cycles: 50003806 heartbeat IPC: 4 cumulative IPC: 4 (Simulation time: 02 hr 21 min 10 sec)
Heartbeat CPU 7 instructions: 200000001 cycles: 50003813 heartbeat IPC: 4 cumulative IPC: 4 (Simulation time: 02 hr 21 min 10 sec)
*** Reached end of trace: (0, "traces/canneal_big0.champsimtrace")
*** Reached end of trace: (5, "traces/canneal_big0.champsimtrace")
*** Reached end of trace: (4, "traces/canneal_big4.champsimtrace")
*** Reached end of trace: (3, "traces/canneal_big3.champsimtrace")
*** Reached end of trace: (2, "traces/canneal_big2.champsimtrace")
*** Reached end of trace: (7, "traces/canneal_big2.champsimtrace")
*** Reached end of trace: (4, "traces/canneal_big4.champsimtrace")
*** Reached end of trace: (3, "traces/canneal_big3.champsimtrace")
Heartbeat CPU 4 instructions: 210000001 cycles: 52503631 heartbeat IPC: 4 cumulative IPC: 4 (Simulation time: 02 hr 30 min 26 sec)
Heartbeat CPU 3 instructions: 210000001 cycles: 52503657 heartbeat IPC: 4 cumulative IPC: 4 (Simulation time: 02 hr 30 min 26 sec)
*** Reached end of trace: (2, "traces/canneal_big2.champsimtrace")
*** Reached end of trace: (7, "traces/canneal_big2.champsimtrace")
Heartbeat CPU 2 instructions: 210000001 cycles: 52503806 heartbeat IPC: 4 cumulative IPC: 4 (Simulation time: 02 hr 30 min 26 sec)
Heartbeat CPU 7 instructions: 210000001 cycles: 52503813 heartbeat IPC: 4 cumulative IPC: 4 (Simulation time: 02 hr 30 min 26 sec)
*** Reached end of trace: (0, "traces/canneal_big0.champsimtrace")
Heartbeat CPU 0 instructions: 130000036 cycles: 52657541 heartbeat IPC: 2.295 cumulative IPC: 2.303 (Simulation time: 02 hr 31 min 01 sec)
*** Reached end of trace: (5, "traces/canneal_big0.champsimtrace")
Heartbeat CPU 5 instructions: 130000039 cycles: 52686601 heartbeat IPC: 2.295 cumulative IPC: 2.306 (Simulation time: 02 hr 31 min 08 sec)
*** Reached end of trace: (4, "traces/canneal_big4.champsimtrace")
*** Reached end of trace: (3, "traces/canneal_big3.champsimtrace")
*** Reached end of trace: (2, "traces/canneal_big2.champsimtrace")
*** Reached end of trace: (7, "traces/canneal_big2.champsimtrace")
*** Reached end of trace: (0, "traces/canneal_big0.champsimtrace")
*** Reached end of trace: (5, "traces/canneal_big0.champsimtrace")
*** Reached end of trace: (4, "traces/canneal_big4.champsimtrace")
*** Reached end of trace: (3, "traces/canneal_big3.champsimtrace")
Heartbeat CPU 4 instructions: 220000001 cycles: 55003631 heartbeat IPC: 4 cumulative IPC: 4 (Simulation time: 02 hr 39 min 40 sec)
Heartbeat CPU 3 instructions: 220000001 cycles: 55003657 heartbeat IPC: 4 cumulative IPC: 4 (Simulation time: 02 hr 39 min 40 sec)
*** Reached end of trace: (2, "traces/canneal_big2.champsimtrace")
*** Reached end of trace: (7, "traces/canneal_big2.champsimtrace")
Heartbeat CPU 2 instructions: 220000001 cycles: 55003806 heartbeat IPC: 4 cumulative IPC: 4 (Simulation time: 02 hr 39 min 40 sec)
Heartbeat CPU 7 instructions: 220000001 cycles: 55003813 heartbeat IPC: 4 cumulative IPC: 4 (Simulation time: 02 hr 39 min 40 sec)
Simulation finished CPU 7 instructions: 100000000 cycles: 25000000 cumulative IPC: 4 (Simulation time: 02 hr 40 min 24 sec)
Simulation finished CPU 4 instructions: 100000000 cycles: 25000000 cumulative IPC: 4 (Simulation time: 02 hr 40 min 24 sec)
Simulation finished CPU 3 instructions: 100000000 cycles: 25000000 cumulative IPC: 4 (Simulation time: 02 hr 40 min 24 sec)
Simulation finished CPU 2 instructions: 100000000 cycles: 25000000 cumulative IPC: 4 (Simulation time: 02 hr 40 min 24 sec)
*** Reached end of trace: (4, "traces/canneal_big4.champsimtrace")
*** Reached end of trace: (3, "traces/canneal_big3.champsimtrace")
*** Reached end of trace: (2, "traces/canneal_big2.champsimtrace")
*** Reached end of trace: (7, "traces/canneal_big2.champsimtrace")
*** Reached end of trace: (0, "traces/canneal_big0.champsimtrace")
Heartbeat CPU 0 instructions: 140000039 cycles: 57016604 heartbeat IPC: 2.294 cumulative IPC: 2.302 (Simulation time: 02 hr 47 min 06 sec)
*** Reached end of trace: (5, "traces/canneal_big0.champsimtrace")
Heartbeat CPU 5 instructions: 140000042 cycles: 57045462 heartbeat IPC: 2.294 cumulative IPC: 2.304 (Simulation time: 02 hr 47 min 12 sec)
*** Reached end of trace: (4, "traces/canneal_big4.champsimtrace")
*** Reached end of trace: (3, "traces/canneal_big3.champsimtrace")
Heartbeat CPU 4 instructions: 230000001 cycles: 57503631 heartbeat IPC: 4 cumulative IPC: 4 (Simulation time: 02 hr 48 min 55 sec)
Heartbeat CPU 3 instructions: 230000001 cycles: 57503657 heartbeat IPC: 4 cumulative IPC: 4 (Simulation time: 02 hr 48 min 55 sec)
*** Reached end of trace: (2, "traces/canneal_big2.champsimtrace")
*** Reached end of trace: (7, "traces/canneal_big2.champsimtrace")
Heartbeat CPU 2 instructions: 230000001 cycles: 57503806 heartbeat IPC: 4 cumulative IPC: 4 (Simulation time: 02 hr 48 min 55 sec)
Heartbeat CPU 7 instructions: 230000001 cycles: 57503813 heartbeat IPC: 4 cumulative IPC: 4 (Simulation time: 02 hr 48 min 55 sec)
*** Reached end of trace: (4, "traces/canneal_big4.champsimtrace")
*** Reached end of trace: (3, "traces/canneal_big3.champsimtrace")
*** Reached end of trace: (2, "traces/canneal_big2.champsimtrace")
*** Reached end of trace: (7, "traces/canneal_big2.champsimtrace")
*** Reached end of trace: (0, "traces/canneal_big0.champsimtrace")
*** Reached end of trace: (5, "traces/canneal_big0.champsimtrace")
*** Reached end of trace: (1, "traces/canneal_big1.champsimtrace")
Heartbeat CPU 1 instructions: 60000010 cycles: 59253344 heartbeat IPC: 0.3425 cumulative IPC: 0.3367 (Simulation time: 02 hr 55 min 22 sec)
*** Reached end of trace: (4, "traces/canneal_big4.champsimtrace")
*** Reached end of trace: (3, "traces/canneal_big3.champsimtrace")
Heartbeat CPU 4 instructions: 240000001 cycles: 60003631 heartbeat IPC: 4 cumulative IPC: 4 (Simulation time: 02 hr 58 min 08 sec)
Heartbeat CPU 3 instructions: 240000001 cycles: 60003657 heartbeat IPC: 4 cumulative IPC: 4 (Simulation time: 02 hr 58 min 08 sec)
*** Reached end of trace: (2, "traces/canneal_big2.champsimtrace")
*** Reached end of trace: (7, "traces/canneal_big2.champsimtrace")
Heartbeat CPU 2 instructions: 240000001 cycles: 60003806 heartbeat IPC: 4 cumulative IPC: 4 (Simulation time: 02 hr 58 min 08 sec)
Heartbeat CPU 7 instructions: 240000001 cycles: 60003813 heartbeat IPC: 4 cumulative IPC: 4 (Simulation time: 02 hr 58 min 08 sec)
*** Reached end of trace: (6, "traces/canneal_big1.champsimtrace")
Heartbeat CPU 6 instructions: 60000010 cycles: 60300168 heartbeat IPC: 0.3322 cumulative IPC: 0.3322 (Simulation time: 02 hr 59 min 13 sec)
*** Reached end of trace: (4, "traces/canneal_big4.champsimtrace")
*** Reached end of trace: (3, "traces/canneal_big3.champsimtrace")
*** Reached end of trace: (2, "traces/canneal_big2.champsimtrace")
*** Reached end of trace: (7, "traces/canneal_big2.champsimtrace")
*** Reached end of trace: (0, "traces/canneal_big0.champsimtrace")
Heartbeat CPU 0 instructions: 150000040 cycles: 61376034 heartbeat IPC: 2.294 cumulative IPC: 2.3 (Simulation time: 03 hr 03 min 13 sec)
*** Reached end of trace: (5, "traces/canneal_big0.champsimtrace")
Heartbeat CPU 5 instructions: 150000045 cycles: 61404788 heartbeat IPC: 2.294 cumulative IPC: 2.303 (Simulation time: 03 hr 03 min 20 sec)
*** Reached end of trace: (4, "traces/canneal_big4.champsimtrace")
*** Reached end of trace: (3, "traces/canneal_big3.champsimtrace")
Heartbeat CPU 4 instructions: 250000001 cycles: 62503631 heartbeat IPC: 4 cumulative IPC: 4 (Simulation time: 03 hr 07 min 30 sec)
Heartbeat CPU 3 instructions: 250000001 cycles: 62503657 heartbeat IPC: 4 cumulative IPC: 4 (Simulation time: 03 hr 07 min 30 sec)
*** Reached end of trace: (2, "traces/canneal_big2.champsimtrace")
*** Reached end of trace: (7, "traces/canneal_big2.champsimtrace")
Heartbeat CPU 2 instructions: 250000001 cycles: 62503806 heartbeat IPC: 4 cumulative IPC: 4 (Simulation time: 03 hr 07 min 30 sec)
Heartbeat CPU 7 instructions: 250000001 cycles: 62503813 heartbeat IPC: 4 cumulative IPC: 4 (Simulation time: 03 hr 07 min 30 sec)
*** Reached end of trace: (0, "traces/canneal_big0.champsimtrace")
*** Reached end of trace: (5, "traces/canneal_big0.champsimtrace")
*** Reached end of trace: (4, "traces/canneal_big4.champsimtrace")
*** Reached end of trace: (3, "traces/canneal_big3.champsimtrace")
*** Reached end of trace: (2, "traces/canneal_big2.champsimtrace")
*** Reached end of trace: (7, "traces/canneal_big2.champsimtrace")
*** Reached end of trace: (4, "traces/canneal_big4.champsimtrace")
*** Reached end of trace: (3, "traces/canneal_big3.champsimtrace")
Heartbeat CPU 4 instructions: 260000001 cycles: 65003631 heartbeat IPC: 4 cumulative IPC: 4 (Simulation time: 03 hr 17 min 05 sec)
Heartbeat CPU 3 instructions: 260000001 cycles: 65003657 heartbeat IPC: 4 cumulative IPC: 4 (Simulation time: 03 hr 17 min 05 sec)
*** Reached end of trace: (2, "traces/canneal_big2.champsimtrace")
*** Reached end of trace: (7, "traces/canneal_big2.champsimtrace")
Heartbeat CPU 2 instructions: 260000001 cycles: 65003806 heartbeat IPC: 4 cumulative IPC: 4 (Simulation time: 03 hr 17 min 05 sec)
Heartbeat CPU 7 instructions: 260000001 cycles: 65003813 heartbeat IPC: 4 cumulative IPC: 4 (Simulation time: 03 hr 17 min 05 sec)
*** Reached end of trace: (0, "traces/canneal_big0.champsimtrace")
Heartbeat CPU 0 instructions: 160000043 cycles: 65743402 heartbeat IPC: 2.29 cumulative IPC: 2.299 (Simulation time: 03 hr 20 min 03 sec)
*** Reached end of trace: (5, "traces/canneal_big0.champsimtrace")
Heartbeat CPU 5 instructions: 160000048 cycles: 65772244 heartbeat IPC: 2.29 cumulative IPC: 2.301 (Simulation time: 03 hr 20 min 11 sec)
*** Reached end of trace: (4, "traces/canneal_big4.champsimtrace")
*** Reached end of trace: (3, "traces/canneal_big3.champsimtrace")
*** Reached end of trace: (2, "traces/canneal_big2.champsimtrace")
*** Reached end of trace: (7, "traces/canneal_big2.champsimtrace")
*** Reached end of trace: (4, "traces/canneal_big4.champsimtrace")
*** Reached end of trace: (3, "traces/canneal_big3.champsimtrace")
Heartbeat CPU 4 instructions: 270000001 cycles: 67503631 heartbeat IPC: 4 cumulative IPC: 4 (Simulation time: 03 hr 26 min 55 sec)
Heartbeat CPU 3 instructions: 270000001 cycles: 67503657 heartbeat IPC: 4 cumulative IPC: 4 (Simulation time: 03 hr 26 min 55 sec)
*** Reached end of trace: (2, "traces/canneal_big2.champsimtrace")
*** Reached end of trace: (7, "traces/canneal_big2.champsimtrace")
Heartbeat CPU 2 instructions: 270000001 cycles: 67503806 heartbeat IPC: 4 cumulative IPC: 4 (Simulation time: 03 hr 26 min 55 sec)
Heartbeat CPU 7 instructions: 270000001 cycles: 67503813 heartbeat IPC: 4 cumulative IPC: 4 (Simulation time: 03 hr 26 min 55 sec)
*** Reached end of trace: (0, "traces/canneal_big0.champsimtrace")
*** Reached end of trace: (5, "traces/canneal_big0.champsimtrace")
*** Reached end of trace: (4, "traces/canneal_big4.champsimtrace")
*** Reached end of trace: (3, "traces/canneal_big3.champsimtrace")
*** Reached end of trace: (2, "traces/canneal_big2.champsimtrace")
*** Reached end of trace: (7, "traces/canneal_big2.champsimtrace")
*** Reached end of trace: (4, "traces/canneal_big4.champsimtrace")
*** Reached end of trace: (3, "traces/canneal_big3.champsimtrace")
Heartbeat CPU 4 instructions: 280000001 cycles: 70003631 heartbeat IPC: 4 cumulative IPC: 4 (Simulation time: 03 hr 36 min 21 sec)
Heartbeat CPU 3 instructions: 280000001 cycles: 70003657 heartbeat IPC: 4 cumulative IPC: 4 (Simulation time: 03 hr 36 min 21 sec)
*** Reached end of trace: (2, "traces/canneal_big2.champsimtrace")
*** Reached end of trace: (7, "traces/canneal_big2.champsimtrace")
Heartbeat CPU 2 instructions: 280000001 cycles: 70003806 heartbeat IPC: 4 cumulative IPC: 4 (Simulation time: 03 hr 36 min 21 sec)
Heartbeat CPU 7 instructions: 280000001 cycles: 70003813 heartbeat IPC: 4 cumulative IPC: 4 (Simulation time: 03 hr 36 min 21 sec)
*** Reached end of trace: (0, "traces/canneal_big0.champsimtrace")
Heartbeat CPU 0 instructions: 170000046 cycles: 70103721 heartbeat IPC: 2.293 cumulative IPC: 2.299 (Simulation time: 03 hr 36 min 42 sec)
*** Reached end of trace: (5, "traces/canneal_big0.champsimtrace")
Heartbeat CPU 5 instructions: 170000051 cycles: 70132765 heartbeat IPC: 2.293 cumulative IPC: 2.3 (Simulation time: 03 hr 36 min 48 sec)
*** Reached end of trace: (4, "traces/canneal_big4.champsimtrace")
*** Reached end of trace: (3, "traces/canneal_big3.champsimtrace")
*** Reached end of trace: (2, "traces/canneal_big2.champsimtrace")
*** Reached end of trace: (7, "traces/canneal_big2.champsimtrace")
*** Reached end of trace: (0, "traces/canneal_big0.champsimtrace")
*** Reached end of trace: (5, "traces/canneal_big0.champsimtrace")
*** Reached end of trace: (4, "traces/canneal_big4.champsimtrace")
*** Reached end of trace: (3, "traces/canneal_big3.champsimtrace")
Heartbeat CPU 4 instructions: 290000001 cycles: 72503631 heartbeat IPC: 4 cumulative IPC: 4 (Simulation time: 03 hr 46 min 18 sec)
Heartbeat CPU 3 instructions: 290000001 cycles: 72503657 heartbeat IPC: 4 cumulative IPC: 4 (Simulation time: 03 hr 46 min 18 sec)
*** Reached end of trace: (2, "traces/canneal_big2.champsimtrace")
*** Reached end of trace: (7, "traces/canneal_big2.champsimtrace")
Heartbeat CPU 2 instructions: 290000001 cycles: 72503806 heartbeat IPC: 4 cumulative IPC: 4 (Simulation time: 03 hr 46 min 18 sec)
Heartbeat CPU 7 instructions: 290000001 cycles: 72503813 heartbeat IPC: 4 cumulative IPC: 4 (Simulation time: 03 hr 46 min 18 sec)
*** Reached end of trace: (4, "traces/canneal_big4.champsimtrace")
*** Reached end of trace: (3, "traces/canneal_big3.champsimtrace")
*** Reached end of trace: (2, "traces/canneal_big2.champsimtrace")
*** Reached end of trace: (7, "traces/canneal_big2.champsimtrace")
Simulation finished CPU 5 instructions: 100000000 cycles: 43594310 cumulative IPC: 2.294 (Simulation time: 03 hr 51 min 25 sec)
Simulation finished CPU 0 instructions: 100000000 cycles: 43630653 cumulative IPC: 2.292 (Simulation time: 03 hr 51 min 34 sec)
*** Reached end of trace: (1, "traces/canneal_big1.champsimtrace")
*** Reached end of trace: (0, "traces/canneal_big0.champsimtrace")
Heartbeat CPU 0 instructions: 180000049 cycles: 74463034 heartbeat IPC: 2.294 cumulative IPC: 2.298 (Simulation time: 03 hr 54 min 08 sec)
*** Reached end of trace: (5, "traces/canneal_big0.champsimtrace")
Heartbeat CPU 5 instructions: 180000054 cycles: 74491881 heartbeat IPC: 2.294 cumulative IPC: 2.3 (Simulation time: 03 hr 54 min 15 sec)
*** Reached end of trace: (4, "traces/canneal_big4.champsimtrace")
*** Reached end of trace: (3, "traces/canneal_big3.champsimtrace")
Heartbeat CPU 4 instructions: 300000001 cycles: 75003631 heartbeat IPC: 4 cumulative IPC: 4 (Simulation time: 03 hr 56 min 21 sec)
Heartbeat CPU 3 instructions: 300000001 cycles: 75003657 heartbeat IPC: 4 cumulative IPC: 4 (Simulation time: 03 hr 56 min 21 sec)
*** Reached end of trace: (2, "traces/canneal_big2.champsimtrace")
*** Reached end of trace: (7, "traces/canneal_big2.champsimtrace")
Heartbeat CPU 2 instructions: 300000001 cycles: 75003806 heartbeat IPC: 4 cumulative IPC: 4 (Simulation time: 03 hr 56 min 21 sec)
Heartbeat CPU 7 instructions: 300000001 cycles: 75003813 heartbeat IPC: 4 cumulative IPC: 4 (Simulation time: 03 hr 56 min 21 sec)
*** Reached end of trace: (6, "traces/canneal_big1.champsimtrace")
*** Reached end of trace: (4, "traces/canneal_big4.champsimtrace")
*** Reached end of trace: (3, "traces/canneal_big3.champsimtrace")
*** Reached end of trace: (2, "traces/canneal_big2.champsimtrace")
*** Reached end of trace: (7, "traces/canneal_big2.champsimtrace")
*** Reached end of trace: (0, "traces/canneal_big0.champsimtrace")
*** Reached end of trace: (5, "traces/canneal_big0.champsimtrace")
*** Reached end of trace: (4, "traces/canneal_big4.champsimtrace")
*** Reached end of trace: (3, "traces/canneal_big3.champsimtrace")
Heartbeat CPU 4 instructions: 310000001 cycles: 77503631 heartbeat IPC: 4 cumulative IPC: 4 (Simulation time: 04 hr 06 min 16 sec)
Heartbeat CPU 3 instructions: 310000001 cycles: 77503657 heartbeat IPC: 4 cumulative IPC: 4 (Simulation time: 04 hr 06 min 16 sec)
*** Reached end of trace: (2, "traces/canneal_big2.champsimtrace")
*** Reached end of trace: (7, "traces/canneal_big2.champsimtrace")
Heartbeat CPU 2 instructions: 310000001 cycles: 77503806 heartbeat IPC: 4 cumulative IPC: 4 (Simulation time: 04 hr 06 min 16 sec)
Heartbeat CPU 7 instructions: 310000001 cycles: 77503813 heartbeat IPC: 4 cumulative IPC: 4 (Simulation time: 04 hr 06 min 16 sec)
*** Reached end of trace: (4, "traces/canneal_big4.champsimtrace")
*** Reached end of trace: (3, "traces/canneal_big3.champsimtrace")
*** Reached end of trace: (2, "traces/canneal_big2.champsimtrace")
*** Reached end of trace: (7, "traces/canneal_big2.champsimtrace")
*** Reached end of trace: (0, "traces/canneal_big0.champsimtrace")
Heartbeat CPU 0 instructions: 190000052 cycles: 78833250 heartbeat IPC: 2.288 cumulative IPC: 2.297 (Simulation time: 04 hr 11 min 37 sec)
*** Reached end of trace: (5, "traces/canneal_big0.champsimtrace")
Heartbeat CPU 5 instructions: 190000057 cycles: 78862082 heartbeat IPC: 2.288 cumulative IPC: 2.299 (Simulation time: 04 hr 11 min 44 sec)
*** Reached end of trace: (4, "traces/canneal_big4.champsimtrace")
*** Reached end of trace: (3, "traces/canneal_big3.champsimtrace")
Heartbeat CPU 4 instructions: 320000001 cycles: 80003631 heartbeat IPC: 4 cumulative IPC: 4 (Simulation time: 04 hr 16 min 17 sec)
Heartbeat CPU 3 instructions: 320000001 cycles: 80003657 heartbeat IPC: 4 cumulative IPC: 4 (Simulation time: 04 hr 16 min 17 sec)
*** Reached end of trace: (2, "traces/canneal_big2.champsimtrace")
*** Reached end of trace: (7, "traces/canneal_big2.champsimtrace")
Heartbeat CPU 2 instructions: 320000001 cycles: 80003806 heartbeat IPC: 4 cumulative IPC: 4 (Simulation time: 04 hr 16 min 17 sec)
Heartbeat CPU 7 instructions: 320000001 cycles: 80003813 heartbeat IPC: 4 cumulative IPC: 4 (Simulation time: 04 hr 16 min 17 sec)
*** Reached end of trace: (0, "traces/canneal_big0.champsimtrace")
*** Reached end of trace: (5, "traces/canneal_big0.champsimtrace")
*** Reached end of trace: (4, "traces/canneal_big4.champsimtrace")
*** Reached end of trace: (3, "traces/canneal_big3.champsimtrace")
*** Reached end of trace: (2, "traces/canneal_big2.champsimtrace")
*** Reached end of trace: (7, "traces/canneal_big2.champsimtrace")
*** Reached end of trace: (4, "traces/canneal_big4.champsimtrace")
*** Reached end of trace: (3, "traces/canneal_big3.champsimtrace")
Heartbeat CPU 4 instructions: 330000001 cycles: 82503631 heartbeat IPC: 4 cumulative IPC: 4 (Simulation time: 04 hr 26 min 30 sec)
Heartbeat CPU 3 instructions: 330000001 cycles: 82503657 heartbeat IPC: 4 cumulative IPC: 4 (Simulation time: 04 hr 26 min 30 sec)
*** Reached end of trace: (2, "traces/canneal_big2.champsimtrace")
*** Reached end of trace: (7, "traces/canneal_big2.champsimtrace")
Heartbeat CPU 2 instructions: 330000001 cycles: 82503806 heartbeat IPC: 4 cumulative IPC: 4 (Simulation time: 04 hr 26 min 30 sec)
Heartbeat CPU 7 instructions: 330000001 cycles: 82503813 heartbeat IPC: 4 cumulative IPC: 4 (Simulation time: 04 hr 26 min 30 sec)
*** Reached end of trace: (0, "traces/canneal_big0.champsimtrace")
Heartbeat CPU 0 instructions: 200000055 cycles: 83198566 heartbeat IPC: 2.291 cumulative IPC: 2.297 (Simulation time: 04 hr 29 min 21 sec)
*** Reached end of trace: (5, "traces/canneal_big0.champsimtrace")
Heartbeat CPU 5 instructions: 200000060 cycles: 83227611 heartbeat IPC: 2.291 cumulative IPC: 2.298 (Simulation time: 04 hr 29 min 28 sec)
*** Reached end of trace: (4, "traces/canneal_big4.champsimtrace")
*** Reached end of trace: (3, "traces/canneal_big3.champsimtrace")
*** Reached end of trace: (2, "traces/canneal_big2.champsimtrace")
*** Reached end of trace: (7, "traces/canneal_big2.champsimtrace")
*** Reached end of trace: (4, "traces/canneal_big4.champsimtrace")
*** Reached end of trace: (3, "traces/canneal_big3.champsimtrace")
Heartbeat CPU 4 instructions: 340000001 cycles: 85003631 heartbeat IPC: 4 cumulative IPC: 4 (Simulation time: 04 hr 36 min 42 sec)
Heartbeat CPU 3 instructions: 340000001 cycles: 85003657 heartbeat IPC: 4 cumulative IPC: 4 (Simulation time: 04 hr 36 min 42 sec)
*** Reached end of trace: (2, "traces/canneal_big2.champsimtrace")
*** Reached end of trace: (7, "traces/canneal_big2.champsimtrace")
Heartbeat CPU 2 instructions: 340000001 cycles: 85003806 heartbeat IPC: 4 cumulative IPC: 4 (Simulation time: 04 hr 36 min 42 sec)
Heartbeat CPU 7 instructions: 340000001 cycles: 85003813 heartbeat IPC: 4 cumulative IPC: 4 (Simulation time: 04 hr 36 min 42 sec)
*** Reached end of trace: (0, "traces/canneal_big0.champsimtrace")
*** Reached end of trace: (5, "traces/canneal_big0.champsimtrace")
*** Reached end of trace: (4, "traces/canneal_big4.champsimtrace")
*** Reached end of trace: (3, "traces/canneal_big3.champsimtrace")
*** Reached end of trace: (2, "traces/canneal_big2.champsimtrace")
*** Reached end of trace: (7, "traces/canneal_big2.champsimtrace")
*** Reached end of trace: (4, "traces/canneal_big4.champsimtrace")
*** Reached end of trace: (3, "traces/canneal_big3.champsimtrace")
Heartbeat CPU 4 instructions: 350000001 cycles: 87503631 heartbeat IPC: 4 cumulative IPC: 4 (Simulation time: 04 hr 46 min 50 sec)
Heartbeat CPU 3 instructions: 350000001 cycles: 87503657 heartbeat IPC: 4 cumulative IPC: 4 (Simulation time: 04 hr 46 min 50 sec)
*** Reached end of trace: (2, "traces/canneal_big2.champsimtrace")
*** Reached end of trace: (7, "traces/canneal_big2.champsimtrace")
Heartbeat CPU 2 instructions: 350000001 cycles: 87503806 heartbeat IPC: 4 cumulative IPC: 4 (Simulation time: 04 hr 46 min 50 sec)
Heartbeat CPU 7 instructions: 350000001 cycles: 87503813 heartbeat IPC: 4 cumulative IPC: 4 (Simulation time: 04 hr 46 min 50 sec)
*** Reached end of trace: (0, "traces/canneal_big0.champsimtrace")
Heartbeat CPU 0 instructions: 210000055 cycles: 87556460 heartbeat IPC: 2.295 cumulative IPC: 2.297 (Simulation time: 04 hr 47 min 02 sec)
*** Reached end of trace: (5, "traces/canneal_big0.champsimtrace")
Heartbeat CPU 5 instructions: 210000063 cycles: 87585494 heartbeat IPC: 2.295 cumulative IPC: 2.298 (Simulation time: 04 hr 47 min 10 sec)
*** Reached end of trace: (4, "traces/canneal_big4.champsimtrace")
*** Reached end of trace: (3, "traces/canneal_big3.champsimtrace")
*** Reached end of trace: (2, "traces/canneal_big2.champsimtrace")
*** Reached end of trace: (7, "traces/canneal_big2.champsimtrace")
*** Reached end of trace: (1, "traces/canneal_big1.champsimtrace")
Heartbeat CPU 1 instructions: 70000012 cycles: 89118950 heartbeat IPC: 0.3348 cumulative IPC: 0.3358 (Simulation time: 04 hr 53 min 22 sec)
*** Reached end of trace: (0, "traces/canneal_big0.champsimtrace")
*** Reached end of trace: (5, "traces/canneal_big0.champsimtrace")
*** Reached end of trace: (4, "traces/canneal_big4.champsimtrace")
*** Reached end of trace: (3, "traces/canneal_big3.champsimtrace")
Heartbeat CPU 4 instructions: 360000001 cycles: 90003631 heartbeat IPC: 4 cumulative IPC: 4 (Simulation time: 04 hr 56 min 52 sec)
Heartbeat CPU 3 instructions: 360000001 cycles: 90003657 heartbeat IPC: 4 cumulative IPC: 4 (Simulation time: 04 hr 56 min 52 sec)
*** Reached end of trace: (2, "traces/canneal_big2.champsimtrace")
*** Reached end of trace: (7, "traces/canneal_big2.champsimtrace")
Heartbeat CPU 2 instructions: 360000001 cycles: 90003806 heartbeat IPC: 4 cumulative IPC: 4 (Simulation time: 04 hr 56 min 52 sec)
Heartbeat CPU 7 instructions: 360000001 cycles: 90003813 heartbeat IPC: 4 cumulative IPC: 4 (Simulation time: 04 hr 56 min 52 sec)
*** Reached end of trace: (6, "traces/canneal_big1.champsimtrace")
Heartbeat CPU 6 instructions: 70000012 cycles: 90445744 heartbeat IPC: 0.3317 cumulative IPC: 0.332 (Simulation time: 04 hr 58 min 35 sec)
*** Reached end of trace: (4, "traces/canneal_big4.champsimtrace")
*** Reached end of trace: (3, "traces/canneal_big3.champsimtrace")
*** Reached end of trace: (2, "traces/canneal_big2.champsimtrace")
*** Reached end of trace: (7, "traces/canneal_big2.champsimtrace")
*** Reached end of trace: (0, "traces/canneal_big0.champsimtrace")
Heartbeat CPU 0 instructions: 220000056 cycles: 91922485 heartbeat IPC: 2.29 cumulative IPC: 2.296 (Simulation time: 05 hr 04 min 21 sec)
*** Reached end of trace: (5, "traces/canneal_big0.champsimtrace")
Heartbeat CPU 5 instructions: 220000066 cycles: 91951540 heartbeat IPC: 2.29 cumulative IPC: 2.297 (Simulation time: 05 hr 04 min 28 sec)
*** Reached end of trace: (4, "traces/canneal_big4.champsimtrace")
*** Reached end of trace: (3, "traces/canneal_big3.champsimtrace")
Heartbeat CPU 4 instructions: 370000001 cycles: 92503631 heartbeat IPC: 4 cumulative IPC: 4 (Simulation time: 05 hr 06 min 39 sec)
Heartbeat CPU 3 instructions: 370000001 cycles: 92503657 heartbeat IPC: 4 cumulative IPC: 4 (Simulation time: 05 hr 06 min 39 sec)
*** Reached end of trace: (2, "traces/canneal_big2.champsimtrace")
*** Reached end of trace: (7, "traces/canneal_big2.champsimtrace")
Heartbeat CPU 2 instructions: 370000001 cycles: 92503806 heartbeat IPC: 4 cumulative IPC: 4 (Simulation time: 05 hr 06 min 39 sec)
Heartbeat CPU 7 instructions: 370000001 cycles: 92503813 heartbeat IPC: 4 cumulative IPC: 4 (Simulation time: 05 hr 06 min 39 sec)
*** Reached end of trace: (4, "traces/canneal_big4.champsimtrace")
*** Reached end of trace: (3, "traces/canneal_big3.champsimtrace")
*** Reached end of trace: (2, "traces/canneal_big2.champsimtrace")
*** Reached end of trace: (7, "traces/canneal_big2.champsimtrace")
*** Reached end of trace: (0, "traces/canneal_big0.champsimtrace")
*** Reached end of trace: (5, "traces/canneal_big0.champsimtrace")
*** Reached end of trace: (4, "traces/canneal_big4.champsimtrace")
*** Reached end of trace: (3, "traces/canneal_big3.champsimtrace")
Heartbeat CPU 4 instructions: 380000001 cycles: 95003631 heartbeat IPC: 4 cumulative IPC: 4 (Simulation time: 05 hr 16 min 15 sec)
Heartbeat CPU 3 instructions: 380000001 cycles: 95003657 heartbeat IPC: 4 cumulative IPC: 4 (Simulation time: 05 hr 16 min 15 sec)
*** Reached end of trace: (2, "traces/canneal_big2.champsimtrace")
*** Reached end of trace: (7, "traces/canneal_big2.champsimtrace")
Heartbeat CPU 2 instructions: 380000001 cycles: 95003806 heartbeat IPC: 4 cumulative IPC: 4 (Simulation time: 05 hr 16 min 15 sec)
Heartbeat CPU 7 instructions: 380000001 cycles: 95003813 heartbeat IPC: 4 cumulative IPC: 4 (Simulation time: 05 hr 16 min 15 sec)
*** Reached end of trace: (4, "traces/canneal_big4.champsimtrace")
*** Reached end of trace: (3, "traces/canneal_big3.champsimtrace")
*** Reached end of trace: (2, "traces/canneal_big2.champsimtrace")
*** Reached end of trace: (7, "traces/canneal_big2.champsimtrace")
*** Reached end of trace: (0, "traces/canneal_big0.champsimtrace")
Heartbeat CPU 0 instructions: 230000056 cycles: 96285479 heartbeat IPC: 2.292 cumulative IPC: 2.296 (Simulation time: 05 hr 21 min 10 sec)
*** Reached end of trace: (5, "traces/canneal_big0.champsimtrace")
Heartbeat CPU 5 instructions: 230000069 cycles: 96314336 heartbeat IPC: 2.292 cumulative IPC: 2.297 (Simulation time: 05 hr 21 min 17 sec)
*** Reached end of trace: (4, "traces/canneal_big4.champsimtrace")
*** Reached end of trace: (3, "traces/canneal_big3.champsimtrace")
Heartbeat CPU 4 instructions: 390000001 cycles: 97503631 heartbeat IPC: 4 cumulative IPC: 4 (Simulation time: 05 hr 25 min 50 sec)
Heartbeat CPU 3 instructions: 390000001 cycles: 97503657 heartbeat IPC: 4 cumulative IPC: 4 (Simulation time: 05 hr 25 min 50 sec)
*** Reached end of trace: (2, "traces/canneal_big2.champsimtrace")
*** Reached end of trace: (7, "traces/canneal_big2.champsimtrace")
Heartbeat CPU 2 instructions: 390000001 cycles: 97503806 heartbeat IPC: 4 cumulative IPC: 4 (Simulation time: 05 hr 25 min 50 sec)
Heartbeat CPU 7 instructions: 390000001 cycles: 97503813 heartbeat IPC: 4 cumulative IPC: 4 (Simulation time: 05 hr 25 min 50 sec)
*** Reached end of trace: (0, "traces/canneal_big0.champsimtrace")
*** Reached end of trace: (5, "traces/canneal_big0.champsimtrace")
*** Reached end of trace: (4, "traces/canneal_big4.champsimtrace")
*** Reached end of trace: (3, "traces/canneal_big3.champsimtrace")
*** Reached end of trace: (2, "traces/canneal_big2.champsimtrace")
*** Reached end of trace: (7, "traces/canneal_big2.champsimtrace")
*** Reached end of trace: (4, "traces/canneal_big4.champsimtrace")
*** Reached end of trace: (3, "traces/canneal_big3.champsimtrace")
Heartbeat CPU 4 instructions: 400000001 cycles: 100003631 heartbeat IPC: 4 cumulative IPC: 4 (Simulation time: 05 hr 35 min 16 sec)
Heartbeat CPU 3 instructions: 400000001 cycles: 100003657 heartbeat IPC: 4 cumulative IPC: 4 (Simulation time: 05 hr 35 min 16 sec)
*** Reached end of trace: (2, "traces/canneal_big2.champsimtrace")
*** Reached end of trace: (7, "traces/canneal_big2.champsimtrace")
Heartbeat CPU 2 instructions: 400000001 cycles: 100003806 heartbeat IPC: 4 cumulative IPC: 4 (Simulation time: 05 hr 35 min 16 sec)
Heartbeat CPU 7 instructions: 400000001 cycles: 100003813 heartbeat IPC: 4 cumulative IPC: 4 (Simulation time: 05 hr 35 min 16 sec)
*** Reached end of trace: (0, "traces/canneal_big0.champsimtrace")
Heartbeat CPU 0 instructions: 240000059 cycles: 100646115 heartbeat IPC: 2.293 cumulative IPC: 2.296 (Simulation time: 05 hr 37 min 45 sec)
*** Reached end of trace: (5, "traces/canneal_big0.champsimtrace")
Heartbeat CPU 5 instructions: 240000072 cycles: 100675167 heartbeat IPC: 2.293 cumulative IPC: 2.297 (Simulation time: 05 hr 37 min 52 sec)
*** Reached end of trace: (4, "traces/canneal_big4.champsimtrace")
*** Reached end of trace: (3, "traces/canneal_big3.champsimtrace")
*** Reached end of trace: (2, "traces/canneal_big2.champsimtrace")
*** Reached end of trace: (7, "traces/canneal_big2.champsimtrace")
*** Reached end of trace: (4, "traces/canneal_big4.champsimtrace")
*** Reached end of trace: (3, "traces/canneal_big3.champsimtrace")
Heartbeat CPU 4 instructions: 410000001 cycles: 102503631 heartbeat IPC: 4 cumulative IPC: 4 (Simulation time: 05 hr 44 min 37 sec)
Heartbeat CPU 3 instructions: 410000001 cycles: 102503657 heartbeat IPC: 4 cumulative IPC: 4 (Simulation time: 05 hr 44 min 37 sec)
*** Reached end of trace: (2, "traces/canneal_big2.champsimtrace")
*** Reached end of trace: (7, "traces/canneal_big2.champsimtrace")
Heartbeat CPU 2 instructions: 410000001 cycles: 102503806 heartbeat IPC: 4 cumulative IPC: 4 (Simulation time: 05 hr 44 min 37 sec)
Heartbeat CPU 7 instructions: 410000001 cycles: 102503813 heartbeat IPC: 4 cumulative IPC: 4 (Simulation time: 05 hr 44 min 37 sec)
*** Reached end of trace: (0, "traces/canneal_big0.champsimtrace")
*** Reached end of trace: (5, "traces/canneal_big0.champsimtrace")
*** Reached end of trace: (4, "traces/canneal_big4.champsimtrace")
*** Reached end of trace: (3, "traces/canneal_big3.champsimtrace")
*** Reached end of trace: (2, "traces/canneal_big2.champsimtrace")
*** Reached end of trace: (7, "traces/canneal_big2.champsimtrace")
*** Reached end of trace: (1, "traces/canneal_big1.champsimtrace")
*** Reached end of trace: (0, "traces/canneal_big0.champsimtrace")
Heartbeat CPU 0 instructions: 250000062 cycles: 105002256 heartbeat IPC: 2.296 cumulative IPC: 2.296 (Simulation time: 05 hr 53 min 41 sec)
*** Reached end of trace: (4, "traces/canneal_big4.champsimtrace")
*** Reached end of trace: (3, "traces/canneal_big3.champsimtrace")
Heartbeat CPU 4 instructions: 420000001 cycles: 105003631 heartbeat IPC: 4 cumulative IPC: 4 (Simulation time: 05 hr 53 min 41 sec)
Heartbeat CPU 3 instructions: 420000001 cycles: 105003657 heartbeat IPC: 4 cumulative IPC: 4 (Simulation time: 05 hr 53 min 41 sec)
*** Reached end of trace: (2, "traces/canneal_big2.champsimtrace")
*** Reached end of trace: (7, "traces/canneal_big2.champsimtrace")
Heartbeat CPU 2 instructions: 420000001 cycles: 105003806 heartbeat IPC: 4 cumulative IPC: 4 (Simulation time: 05 hr 53 min 41 sec)
Heartbeat CPU 7 instructions: 420000001 cycles: 105003813 heartbeat IPC: 4 cumulative IPC: 4 (Simulation time: 05 hr 53 min 41 sec)
*** Reached end of trace: (5, "traces/canneal_big0.champsimtrace")
Heartbeat CPU 5 instructions: 250000075 cycles: 105031113 heartbeat IPC: 2.296 cumulative IPC: 2.297 (Simulation time: 05 hr 53 min 47 sec)
*** Reached end of trace: (6, "traces/canneal_big1.champsimtrace")
*** Reached end of trace: (4, "traces/canneal_big4.champsimtrace")
*** Reached end of trace: (3, "traces/canneal_big3.champsimtrace")
*** Reached end of trace: (2, "traces/canneal_big2.champsimtrace")
*** Reached end of trace: (7, "traces/canneal_big2.champsimtrace")
*** Reached end of trace: (0, "traces/canneal_big0.champsimtrace")
*** Reached end of trace: (5, "traces/canneal_big0.champsimtrace")
*** Reached end of trace: (4, "traces/canneal_big4.champsimtrace")
*** Reached end of trace: (3, "traces/canneal_big3.champsimtrace")
Heartbeat CPU 4 instructions: 430000001 cycles: 107503631 heartbeat IPC: 4 cumulative IPC: 4 (Simulation time: 06 hr 02 min 47 sec)
Heartbeat CPU 3 instructions: 430000001 cycles: 107503657 heartbeat IPC: 4 cumulative IPC: 4 (Simulation time: 06 hr 02 min 47 sec)
*** Reached end of trace: (2, "traces/canneal_big2.champsimtrace")
*** Reached end of trace: (7, "traces/canneal_big2.champsimtrace")
Heartbeat CPU 2 instructions: 430000001 cycles: 107503806 heartbeat IPC: 4 cumulative IPC: 4 (Simulation time: 06 hr 02 min 47 sec)
Heartbeat CPU 7 instructions: 430000001 cycles: 107503813 heartbeat IPC: 4 cumulative IPC: 4 (Simulation time: 06 hr 02 min 47 sec)
*** Reached end of trace: (4, "traces/canneal_big4.champsimtrace")
*** Reached end of trace: (3, "traces/canneal_big3.champsimtrace")
*** Reached end of trace: (2, "traces/canneal_big2.champsimtrace")
*** Reached end of trace: (7, "traces/canneal_big2.champsimtrace")
*** Reached end of trace: (0, "traces/canneal_big0.champsimtrace")
Heartbeat CPU 0 instructions: 260000063 cycles: 109368095 heartbeat IPC: 2.291 cumulative IPC: 2.295 (Simulation time: 06 hr 09 min 33 sec)
*** Reached end of trace: (5, "traces/canneal_big0.champsimtrace")
Heartbeat CPU 5 instructions: 260000075 cycles: 109397075 heartbeat IPC: 2.29 cumulative IPC: 2.296 (Simulation time: 06 hr 09 min 39 sec)
*** Reached end of trace: (4, "traces/canneal_big4.champsimtrace")
*** Reached end of trace: (3, "traces/canneal_big3.champsimtrace")
Heartbeat CPU 4 instructions: 440000001 cycles: 110003631 heartbeat IPC: 4 cumulative IPC: 4 (Simulation time: 06 hr 11 min 53 sec)
Heartbeat CPU 3 instructions: 440000001 cycles: 110003657 heartbeat IPC: 4 cumulative IPC: 4 (Simulation time: 06 hr 11 min 53 sec)
*** Reached end of trace: (2, "traces/canneal_big2.champsimtrace")
*** Reached end of trace: (7, "traces/canneal_big2.champsimtrace")
Heartbeat CPU 2 instructions: 440000001 cycles: 110003806 heartbeat IPC: 4 cumulative IPC: 4 (Simulation time: 06 hr 11 min 53 sec)
Heartbeat CPU 7 instructions: 440000001 cycles: 110003813 heartbeat IPC: 4 cumulative IPC: 4 (Simulation time: 06 hr 11 min 53 sec)
*** Reached end of trace: (4, "traces/canneal_big4.champsimtrace")
*** Reached end of trace: (3, "traces/canneal_big3.champsimtrace")
*** Reached end of trace: (2, "traces/canneal_big2.champsimtrace")
*** Reached end of trace: (7, "traces/canneal_big2.champsimtrace")
*** Reached end of trace: (0, "traces/canneal_big0.champsimtrace")
*** Reached end of trace: (5, "traces/canneal_big0.champsimtrace")
*** Reached end of trace: (4, "traces/canneal_big4.champsimtrace")
*** Reached end of trace: (3, "traces/canneal_big3.champsimtrace")
Heartbeat CPU 4 instructions: 450000001 cycles: 112503631 heartbeat IPC: 4 cumulative IPC: 4 (Simulation time: 06 hr 21 min 06 sec)
Heartbeat CPU 3 instructions: 450000001 cycles: 112503657 heartbeat IPC: 4 cumulative IPC: 4 (Simulation time: 06 hr 21 min 06 sec)
*** Reached end of trace: (2, "traces/canneal_big2.champsimtrace")
*** Reached end of trace: (7, "traces/canneal_big2.champsimtrace")
Heartbeat CPU 2 instructions: 450000001 cycles: 112503806 heartbeat IPC: 4 cumulative IPC: 4 (Simulation time: 06 hr 21 min 06 sec)
Heartbeat CPU 7 instructions: 450000001 cycles: 112503813 heartbeat IPC: 4 cumulative IPC: 4 (Simulation time: 06 hr 21 min 06 sec)
*** Reached end of trace: (0, "traces/canneal_big0.champsimtrace")
Heartbeat CPU 0 instructions: 270000066 cycles: 113726789 heartbeat IPC: 2.294 cumulative IPC: 2.295 (Simulation time: 06 hr 26 min 04 sec)
*** Reached end of trace: (4, "traces/canneal_big4.champsimtrace")
*** Reached end of trace: (3, "traces/canneal_big3.champsimtrace")
*** Reached end of trace: (2, "traces/canneal_big2.champsimtrace")
*** Reached end of trace: (7, "traces/canneal_big2.champsimtrace")
*** Reached end of trace: (5, "traces/canneal_big0.champsimtrace")
Heartbeat CPU 5 instructions: 270000076 cycles: 113755894 heartbeat IPC: 2.294 cumulative IPC: 2.296 (Simulation time: 06 hr 26 min 11 sec)
*** Reached end of trace: (4, "traces/canneal_big4.champsimtrace")
*** Reached end of trace: (3, "traces/canneal_big3.champsimtrace")
Heartbeat CPU 4 instructions: 460000001 cycles: 115003631 heartbeat IPC: 4 cumulative IPC: 4 (Simulation time: 06 hr 31 min 12 sec)
Heartbeat CPU 3 instructions: 460000001 cycles: 115003657 heartbeat IPC: 4 cumulative IPC: 4 (Simulation time: 06 hr 31 min 12 sec)
*** Reached end of trace: (2, "traces/canneal_big2.champsimtrace")
*** Reached end of trace: (7, "traces/canneal_big2.champsimtrace")
Heartbeat CPU 2 instructions: 460000001 cycles: 115003806 heartbeat IPC: 4 cumulative IPC: 4 (Simulation time: 06 hr 31 min 12 sec)
Heartbeat CPU 7 instructions: 460000001 cycles: 115003813 heartbeat IPC: 4 cumulative IPC: 4 (Simulation time: 06 hr 31 min 12 sec)
*** Reached end of trace: (0, "traces/canneal_big0.champsimtrace")
*** Reached end of trace: (5, "traces/canneal_big0.champsimtrace")
*** Reached end of trace: (4, "traces/canneal_big4.champsimtrace")
*** Reached end of trace: (3, "traces/canneal_big3.champsimtrace")
*** Reached end of trace: (2, "traces/canneal_big2.champsimtrace")
*** Reached end of trace: (7, "traces/canneal_big2.champsimtrace")
*** Reached end of trace: (4, "traces/canneal_big4.champsimtrace")
*** Reached end of trace: (3, "traces/canneal_big3.champsimtrace")
Heartbeat CPU 4 instructions: 470000001 cycles: 117503631 heartbeat IPC: 4 cumulative IPC: 4 (Simulation time: 06 hr 41 min 13 sec)
Heartbeat CPU 3 instructions: 470000001 cycles: 117503657 heartbeat IPC: 4 cumulative IPC: 4 (Simulation time: 06 hr 41 min 13 sec)
*** Reached end of trace: (2, "traces/canneal_big2.champsimtrace")
*** Reached end of trace: (7, "traces/canneal_big2.champsimtrace")
Heartbeat CPU 2 instructions: 470000001 cycles: 117503806 heartbeat IPC: 4 cumulative IPC: 4 (Simulation time: 06 hr 41 min 13 sec)
Heartbeat CPU 7 instructions: 470000001 cycles: 117503813 heartbeat IPC: 4 cumulative IPC: 4 (Simulation time: 06 hr 41 min 13 sec)
*** Reached end of trace: (0, "traces/canneal_big0.champsimtrace")
Heartbeat CPU 0 instructions: 280000069 cycles: 118088662 heartbeat IPC: 2.293 cumulative IPC: 2.295 (Simulation time: 06 hr 43 min 33 sec)
*** Reached end of trace: (5, "traces/canneal_big0.champsimtrace")
Heartbeat CPU 5 instructions: 280000079 cycles: 118117710 heartbeat IPC: 2.293 cumulative IPC: 2.296 (Simulation time: 06 hr 43 min 40 sec)
*** Reached end of trace: (4, "traces/canneal_big4.champsimtrace")
*** Reached end of trace: (3, "traces/canneal_big3.champsimtrace")
*** Reached end of trace: (2, "traces/canneal_big2.champsimtrace")
*** Reached end of trace: (7, "traces/canneal_big2.champsimtrace")
*** Reached end of trace: (1, "traces/canneal_big1.champsimtrace")
Heartbeat CPU 1 instructions: 80000014 cycles: 118939551 heartbeat IPC: 0.3353 cumulative IPC: 0.3356 (Simulation time: 06 hr 46 min 55 sec)
*** Reached end of trace: (4, "traces/canneal_big4.champsimtrace")
*** Reached end of trace: (3, "traces/canneal_big3.champsimtrace")
Heartbeat CPU 4 instructions: 480000001 cycles: 120003631 heartbeat IPC: 4 cumulative IPC: 4 (Simulation time: 06 hr 51 min 10 sec)
Heartbeat CPU 3 instructions: 480000001 cycles: 120003657 heartbeat IPC: 4 cumulative IPC: 4 (Simulation time: 06 hr 51 min 10 sec)
*** Reached end of trace: (2, "traces/canneal_big2.champsimtrace")
*** Reached end of trace: (7, "traces/canneal_big2.champsimtrace")
Heartbeat CPU 2 instructions: 480000001 cycles: 120003806 heartbeat IPC: 4 cumulative IPC: 4 (Simulation time: 06 hr 51 min 10 sec)
Heartbeat CPU 7 instructions: 480000001 cycles: 120003813 heartbeat IPC: 4 cumulative IPC: 4 (Simulation time: 06 hr 51 min 10 sec)
*** Reached end of trace: (0, "traces/canneal_big0.champsimtrace")
*** Reached end of trace: (5, "traces/canneal_big0.champsimtrace")
*** Reached end of trace: (6, "traces/canneal_big1.champsimtrace")
Heartbeat CPU 6 instructions: 80000014 cycles: 120546210 heartbeat IPC: 0.3322 cumulative IPC: 0.332 (Simulation time: 06 hr 53 min 20 sec)
*** Reached end of trace: (4, "traces/canneal_big4.champsimtrace")
*** Reached end of trace: (3, "traces/canneal_big3.champsimtrace")
*** Reached end of trace: (2, "traces/canneal_big2.champsimtrace")
*** Reached end of trace: (7, "traces/canneal_big2.champsimtrace")
*** Reached end of trace: (0, "traces/canneal_big0.champsimtrace")
Heartbeat CPU 0 instructions: 290000072 cycles: 122456253 heartbeat IPC: 2.29 cumulative IPC: 2.295 (Simulation time: 07 hr 00 min 56 sec)
*** Reached end of trace: (5, "traces/canneal_big0.champsimtrace")
Heartbeat CPU 5 instructions: 290000082 cycles: 122485096 heartbeat IPC: 2.29 cumulative IPC: 2.296 (Simulation time: 07 hr 01 min 03 sec)
*** Reached end of trace: (4, "traces/canneal_big4.champsimtrace")
*** Reached end of trace: (3, "traces/canneal_big3.champsimtrace")
Heartbeat CPU 4 instructions: 490000001 cycles: 122503631 heartbeat IPC: 4 cumulative IPC: 4 (Simulation time: 07 hr 01 min 07 sec)
Heartbeat CPU 3 instructions: 490000001 cycles: 122503657 heartbeat IPC: 4 cumulative IPC: 4 (Simulation time: 07 hr 01 min 07 sec)
*** Reached end of trace: (2, "traces/canneal_big2.champsimtrace")
*** Reached end of trace: (7, "traces/canneal_big2.champsimtrace")
Heartbeat CPU 2 instructions: 490000001 cycles: 122503806 heartbeat IPC: 4 cumulative IPC: 4 (Simulation time: 07 hr 01 min 08 sec)
Heartbeat CPU 7 instructions: 490000001 cycles: 122503813 heartbeat IPC: 4 cumulative IPC: 4 (Simulation time: 07 hr 01 min 08 sec)
*** Reached end of trace: (4, "traces/canneal_big4.champsimtrace")
*** Reached end of trace: (3, "traces/canneal_big3.champsimtrace")
*** Reached end of trace: (2, "traces/canneal_big2.champsimtrace")
*** Reached end of trace: (7, "traces/canneal_big2.champsimtrace")
*** Reached end of trace: (0, "traces/canneal_big0.champsimtrace")
*** Reached end of trace: (5, "traces/canneal_big0.champsimtrace")
*** Reached end of trace: (4, "traces/canneal_big4.champsimtrace")
*** Reached end of trace: (3, "traces/canneal_big3.champsimtrace")
Heartbeat CPU 4 instructions: 500000001 cycles: 125003631 heartbeat IPC: 4 cumulative IPC: 4 (Simulation time: 07 hr 11 min 01 sec)
Heartbeat CPU 3 instructions: 500000001 cycles: 125003657 heartbeat IPC: 4 cumulative IPC: 4 (Simulation time: 07 hr 11 min 01 sec)
*** Reached end of trace: (2, "traces/canneal_big2.champsimtrace")
*** Reached end of trace: (7, "traces/canneal_big2.champsimtrace")
Heartbeat CPU 2 instructions: 500000001 cycles: 125003806 heartbeat IPC: 4 cumulative IPC: 4 (Simulation time: 07 hr 11 min 01 sec)
Heartbeat CPU 7 instructions: 500000001 cycles: 125003813 heartbeat IPC: 4 cumulative IPC: 4 (Simulation time: 07 hr 11 min 01 sec)
*** Reached end of trace: (4, "traces/canneal_big4.champsimtrace")
*** Reached end of trace: (3, "traces/canneal_big3.champsimtrace")
*** Reached end of trace: (2, "traces/canneal_big2.champsimtrace")
*** Reached end of trace: (7, "traces/canneal_big2.champsimtrace")
*** Reached end of trace: (0, "traces/canneal_big0.champsimtrace")
Heartbeat CPU 0 instructions: 300000072 cycles: 126823200 heartbeat IPC: 2.29 cumulative IPC: 2.295 (Simulation time: 07 hr 18 min 05 sec)
*** Reached end of trace: (5, "traces/canneal_big0.champsimtrace")
Heartbeat CPU 5 instructions: 300000085 cycles: 126851922 heartbeat IPC: 2.29 cumulative IPC: 2.295 (Simulation time: 07 hr 18 min 12 sec)
*** Reached end of trace: (4, "traces/canneal_big4.champsimtrace")
*** Reached end of trace: (3, "traces/canneal_big3.champsimtrace")
Heartbeat CPU 4 instructions: 510000001 cycles: 127503631 heartbeat IPC: 4 cumulative IPC: 4 (Simulation time: 07 hr 20 min 48 sec)
Heartbeat CPU 3 instructions: 510000001 cycles: 127503657 heartbeat IPC: 4 cumulative IPC: 4 (Simulation time: 07 hr 20 min 48 sec)
*** Reached end of trace: (2, "traces/canneal_big2.champsimtrace")
*** Reached end of trace: (7, "traces/canneal_big2.champsimtrace")
Heartbeat CPU 2 instructions: 510000001 cycles: 127503806 heartbeat IPC: 4 cumulative IPC: 4 (Simulation time: 07 hr 20 min 48 sec)
Heartbeat CPU 7 instructions: 510000001 cycles: 127503813 heartbeat IPC: 4 cumulative IPC: 4 (Simulation time: 07 hr 20 min 48 sec)
*** Reached end of trace: (4, "traces/canneal_big4.champsimtrace")
*** Reached end of trace: (3, "traces/canneal_big3.champsimtrace")
*** Reached end of trace: (2, "traces/canneal_big2.champsimtrace")
*** Reached end of trace: (7, "traces/canneal_big2.champsimtrace")
*** Reached end of trace: (0, "traces/canneal_big0.champsimtrace")
*** Reached end of trace: (5, "traces/canneal_big0.champsimtrace")
*** Reached end of trace: (4, "traces/canneal_big4.champsimtrace")
*** Reached end of trace: (3, "traces/canneal_big3.champsimtrace")
Heartbeat CPU 4 instructions: 520000001 cycles: 130003631 heartbeat IPC: 4 cumulative IPC: 4 (Simulation time: 07 hr 30 min 13 sec)
Heartbeat CPU 3 instructions: 520000001 cycles: 130003657 heartbeat IPC: 4 cumulative IPC: 4 (Simulation time: 07 hr 30 min 13 sec)
*** Reached end of trace: (2, "traces/canneal_big2.champsimtrace")
*** Reached end of trace: (7, "traces/canneal_big2.champsimtrace")
Heartbeat CPU 2 instructions: 520000001 cycles: 130003806 heartbeat IPC: 4 cumulative IPC: 4 (Simulation time: 07 hr 30 min 13 sec)
Heartbeat CPU 7 instructions: 520000001 cycles: 130003813 heartbeat IPC: 4 cumulative IPC: 4 (Simulation time: 07 hr 30 min 13 sec)
*** Reached end of trace: (0, "traces/canneal_big0.champsimtrace")
Heartbeat CPU 0 instructions: 310000075 cycles: 131185711 heartbeat IPC: 2.292 cumulative IPC: 2.295 (Simulation time: 07 hr 34 min 37 sec)
*** Reached end of trace: (5, "traces/canneal_big0.champsimtrace")
Heartbeat CPU 5 instructions: 310000088 cycles: 131214733 heartbeat IPC: 2.292 cumulative IPC: 2.295 (Simulation time: 07 hr 34 min 43 sec)
*** Reached end of trace: (4, "traces/canneal_big4.champsimtrace")
*** Reached end of trace: (3, "traces/canneal_big3.champsimtrace")
*** Reached end of trace: (2, "traces/canneal_big2.champsimtrace")
*** Reached end of trace: (7, "traces/canneal_big2.champsimtrace")
*** Reached end of trace: (4, "traces/canneal_big4.champsimtrace")
*** Reached end of trace: (3, "traces/canneal_big3.champsimtrace")
[...]
cpu5->cpu5_DTLB PREFETCH REQUESTED:          0 ISSUED:          0 USEFUL:          0 USELESS:          0
cpu5->cpu5_DTLB AVERAGE MISS LATENCY: 3.986 cycles
cpu5_DTLB COHERENCE INVALIDATIONS:          0
cpu5_DTLB COHERENCE WRITE-HIT OTHER-SHARER EVENTS:          0
cpu4_STLB COHERENCE INVALIDATIONS:          0
cpu4_STLB COHERENCE WRITE-HIT OTHER-SHARER EVENTS:          0
cpu4_L2C COHERENCE INVALIDATIONS:          0
cpu4_L2C COHERENCE WRITE-HIT OTHER-SHARER EVENTS:          0
cpu4->cpu4_L1I TOTAL        ACCESS:  161408395 HIT:  161408395 MISS:          0 MSHR_MERGE:          0
cpu4->cpu4_L1I LOAD         ACCESS:  161408395 HIT:  161408395 MISS:          0 MSHR_MERGE:          0
cpu4->cpu4_L1I RFO          ACCESS:          0 HIT:          0 MISS:          0 MSHR_MERGE:          0
cpu4->cpu4_L1I PREFETCH     ACCESS:          0 HIT:          0 MISS:          0 MSHR_MERGE:          0
cpu4->cpu4_L1I WRITE        ACCESS:          0 HIT:          0 MISS:          0 MSHR_MERGE:          0
cpu4->cpu4_L1I TRANSLATION  ACCESS:          0 HIT:          0 MISS:          0 MSHR_MERGE:          0
cpu4->cpu4_L1I PREFETCH REQUESTED:          0 ISSUED:          0 USEFUL:          0 USELESS:          0
cpu4->cpu4_L1I AVERAGE MISS LATENCY: - cycles
cpu4_L1I COHERENCE INVALIDATIONS:          0
cpu4_L1I COHERENCE WRITE-HIT OTHER-SHARER EVENTS:          0
cpu4_L1D COHERENCE INVALIDATIONS:          0
cpu4_L1D COHERENCE WRITE-HIT OTHER-SHARER EVENTS:          0
cpu4->cpu4_ITLB TOTAL        ACCESS:  134233978 HIT:  134233978 MISS:          0 MSHR_MERGE:          0
cpu4->cpu4_ITLB LOAD         ACCESS:  134233978 HIT:  134233978 MISS:          0 MSHR_MERGE:          0
cpu4->cpu4_ITLB RFO          ACCESS:          0 HIT:          0 MISS:          0 MSHR_MERGE:          0
cpu4->cpu4_ITLB PREFETCH     ACCESS:          0 HIT:          0 MISS:          0 MSHR_MERGE:          0
cpu4->cpu4_ITLB WRITE        ACCESS:          0 HIT:          0 MISS:          0 MSHR_MERGE:          0
cpu4->cpu4_ITLB TRANSLATION  ACCESS:          0 HIT:          0 MISS:          0 MSHR_MERGE:          0
cpu4->cpu4_ITLB PREFETCH REQUESTED:          0 ISSUED:          0 USEFUL:          0 USELESS:          0
cpu4->cpu4_ITLB AVERAGE MISS LATENCY: - cycles
cpu4_ITLB COHERENCE INVALIDATIONS:          0
cpu4_ITLB COHERENCE WRITE-HIT OTHER-SHARER EVENTS:          0
cpu4_DTLB COHERENCE INVALIDATIONS:          0
cpu4_DTLB COHERENCE WRITE-HIT OTHER-SHARER EVENTS:          0
cpu3_STLB COHERENCE INVALIDATIONS:          0
cpu3_STLB COHERENCE WRITE-HIT OTHER-SHARER EVENTS:          0
cpu3_L2C COHERENCE INVALIDATIONS:          0
cpu3_L2C COHERENCE WRITE-HIT OTHER-SHARER EVENTS:          0
cpu3->cpu3_L1I TOTAL        ACCESS:  172690004 HIT:  172690004 MISS:          0 MSHR_MERGE:          0
cpu3->cpu3_L1I LOAD         ACCESS:  172690004 HIT:  172690004 MISS:          0 MSHR_MERGE:          0
cpu3->cpu3_L1I RFO          ACCESS:          0 HIT:          0 MISS:          0 MSHR_MERGE:          0
cpu3->cpu3_L1I PREFETCH     ACCESS:          0 HIT:          0 MISS:          0 MSHR_MERGE:          0
cpu3->cpu3_L1I WRITE        ACCESS:          0 HIT:          0 MISS:          0 MSHR_MERGE:          0
cpu3->cpu3_L1I TRANSLATION  ACCESS:          0 HIT:          0 MISS:          0 MSHR_MERGE:          0
cpu3->cpu3_L1I PREFETCH REQUESTED:          0 ISSUED:          0 USEFUL:          0 USELESS:          0
cpu3->cpu3_L1I AVERAGE MISS LATENCY: - cycles
cpu3_L1I COHERENCE INVALIDATIONS:          0
cpu3_L1I COHERENCE WRITE-HIT OTHER-SHARER EVENTS:          0
cpu3_L1D COHERENCE INVALIDATIONS:          0
cpu3_L1D COHERENCE WRITE-HIT OTHER-SHARER EVENTS:          0
cpu3->cpu3_ITLB TOTAL        ACCESS:  144132062 HIT:  144132062 MISS:          0 MSHR_MERGE:          0
cpu3->cpu3_ITLB LOAD         ACCESS:  144132062 HIT:  144132062 MISS:          0 MSHR_MERGE:          0
cpu3->cpu3_ITLB RFO          ACCESS:          0 HIT:          0 MISS:          0 MSHR_MERGE:          0
cpu3->cpu3_ITLB PREFETCH     ACCESS:          0 HIT:          0 MISS:          0 MSHR_MERGE:          0
cpu3->cpu3_ITLB WRITE        ACCESS:          0 HIT:          0 MISS:          0 MSHR_MERGE:          0
cpu3->cpu3_ITLB TRANSLATION  ACCESS:          0 HIT:          0 MISS:          0 MSHR_MERGE:          0
cpu3->cpu3_ITLB PREFETCH REQUESTED:          0 ISSUED:          0 USEFUL:          0 USELESS:          0
cpu3->cpu3_ITLB AVERAGE MISS LATENCY: - cycles
cpu3_ITLB COHERENCE INVALIDATIONS:          0
cpu3_ITLB COHERENCE WRITE-HIT OTHER-SHARER EVENTS:          0
cpu3_DTLB COHERENCE INVALIDATIONS:          0
cpu3_DTLB COHERENCE WRITE-HIT OTHER-SHARER EVENTS:          0
cpu2_STLB COHERENCE INVALIDATIONS:          0
cpu2_STLB COHERENCE WRITE-HIT OTHER-SHARER EVENTS:          0
cpu2_L2C COHERENCE INVALIDATIONS:          0
cpu2_L2C COHERENCE WRITE-HIT OTHER-SHARER EVENTS:          0
cpu2->cpu2_L1I TOTAL        ACCESS:  158989285 HIT:  158989285 MISS:          0 MSHR_MERGE:          0
cpu2->cpu2_L1I LOAD         ACCESS:  158989285 HIT:  158989285 MISS:          0 MSHR_MERGE:          0
cpu2->cpu2_L1I RFO          ACCESS:          0 HIT:          0 MISS:          0 MSHR_MERGE:          0
cpu2->cpu2_L1I PREFETCH     ACCESS:          0 HIT:          0 MISS:          0 MSHR_MERGE:          0
cpu2->cpu2_L1I WRITE        ACCESS:          0 HIT:          0 MISS:          0 MSHR_MERGE:          0
cpu2->cpu2_L1I TRANSLATION  ACCESS:          0 HIT:          0 MISS:          0 MSHR_MERGE:          0
cpu2->cpu2_L1I PREFETCH REQUESTED:          0 ISSUED:          0 USEFUL:          0 USELESS:          0
cpu2->cpu2_L1I AVERAGE MISS LATENCY: - cycles
cpu2_L1I COHERENCE INVALIDATIONS:          0
cpu2_L1I COHERENCE WRITE-HIT OTHER-SHARER EVENTS:          0
cpu2_L1D COHERENCE INVALIDATIONS:          0
cpu2_L1D COHERENCE WRITE-HIT OTHER-SHARER EVENTS:          0
cpu2->cpu2_ITLB TOTAL        ACCESS:  138251945 HIT:  138251945 MISS:          0 MSHR_MERGE:          0
cpu2->cpu2_ITLB LOAD         ACCESS:  138251945 HIT:  138251945 MISS:          0 MSHR_MERGE:          0
cpu2->cpu2_ITLB RFO          ACCESS:          0 HIT:          0 MISS:          0 MSHR_MERGE:          0
cpu2->cpu2_ITLB PREFETCH     ACCESS:          0 HIT:          0 MISS:          0 MSHR_MERGE:          0
cpu2->cpu2_ITLB WRITE        ACCESS:          0 HIT:          0 MISS:          0 MSHR_MERGE:          0
cpu2->cpu2_ITLB TRANSLATION  ACCESS:          0 HIT:          0 MISS:          0 MSHR_MERGE:          0
cpu2->cpu2_ITLB PREFETCH REQUESTED:          0 ISSUED:          0 USEFUL:          0 USELESS:          0
cpu2->cpu2_ITLB AVERAGE MISS LATENCY: - cycles
cpu2_ITLB COHERENCE INVALIDATIONS:          0
cpu2_ITLB COHERENCE WRITE-HIT OTHER-SHARER EVENTS:          0
cpu2_DTLB COHERENCE INVALIDATIONS:          0
cpu2_DTLB COHERENCE WRITE-HIT OTHER-SHARER EVENTS:          0
cpu1->cpu1_STLB TOTAL        ACCESS:    2242298 HIT:    2044165 MISS:     198133 MSHR_MERGE:          0
cpu1->cpu1_STLB LOAD         ACCESS:    2242298 HIT:    2044165 MISS:     198133 MSHR_MERGE:          0
cpu1->cpu1_STLB RFO          ACCESS:          0 HIT:          0 MISS:          0 MSHR_MERGE:          0
cpu1->cpu1_STLB PREFETCH     ACCESS:          0 HIT:          0 MISS:          0 MSHR_MERGE:          0
cpu1->cpu1_STLB WRITE        ACCESS:          0 HIT:          0 MISS:          0 MSHR_MERGE:          0
cpu1->cpu1_STLB TRANSLATION  ACCESS:          0 HIT:          0 MISS:          0 MSHR_MERGE:          0
cpu1->cpu1_STLB PREFETCH REQUESTED:          0 ISSUED:          0 USEFUL:          0 USELESS:          0
cpu1->cpu1_STLB AVERAGE MISS LATENCY: 397.7 cycles
cpu1_STLB COHERENCE INVALIDATIONS:          0
cpu1_STLB COHERENCE WRITE-HIT OTHER-SHARER EVENTS:          0
cpu1->cpu1_L2C TOTAL        ACCESS:    2375415 HIT:     420213 MISS:    1955202 MSHR_MERGE:          0
cpu1->cpu1_L2C LOAD         ACCESS:    1982792 HIT:     419021 MISS:    1563771 MSHR_MERGE:          0
cpu1->cpu1_L2C RFO          ACCESS:          0 HIT:          0 MISS:          0 MSHR_MERGE:          0
cpu1->cpu1_L2C PREFETCH     ACCESS:          0 HIT:          0 MISS:          0 MSHR_MERGE:          0
cpu1->cpu1_L2C WRITE        ACCESS:          0 HIT:          0 MISS:          0 MSHR_MERGE:          0
cpu1->cpu1_L2C TRANSLATION  ACCESS:     392623 HIT:       1192 MISS:     391431 MSHR_MERGE:          0
cpu1->cpu1_L2C PREFETCH REQUESTED:          0 ISSUED:          0 USEFUL:          0 USELESS:          0
cpu1->cpu1_L2C AVERAGE MISS LATENCY: 211.2 cycles
cpu1_L2C COHERENCE INVALIDATIONS:          0
cpu1_L2C COHERENCE WRITE-HIT OTHER-SHARER EVENTS:          0
cpu1->cpu1_L1I TOTAL        ACCESS:   34436504 HIT:   32242778 MISS:    2193726 MSHR_MERGE:     210934
cpu1->cpu1_L1I LOAD         ACCESS:   34436504 HIT:   32242778 MISS:    2193726 MSHR_MERGE:     210934
cpu1->cpu1_L1I RFO          ACCESS:          0 HIT:          0 MISS:          0 MSHR_MERGE:          0
cpu1->cpu1_L1I PREFETCH     ACCESS:          0 HIT:          0 MISS:          0 MSHR_MERGE:          0
cpu1->cpu1_L1I WRITE        ACCESS:          0 HIT:          0 MISS:          0 MSHR_MERGE:          0
cpu1->cpu1_L1I TRANSLATION  ACCESS:          0 HIT:          0 MISS:          0 MSHR_MERGE:          0
cpu1->cpu1_L1I PREFETCH REQUESTED:          0 ISSUED:          0 USEFUL:          0 USELESS:          0
cpu1->cpu1_L1I AVERAGE MISS LATENCY: 179.1 cycles
cpu1_L1I COHERENCE INVALIDATIONS:          0
cpu1_L1I COHERENCE WRITE-HIT OTHER-SHARER EVENTS:          0
cpu1->cpu1_L1D TOTAL        ACCESS:     396406 HIT:       3783 MISS:     392623 MSHR_MERGE:          0
cpu1->cpu1_L1D LOAD         ACCESS:          0 HIT:          0 MISS:          0 MSHR_MERGE:          0
cpu1->cpu1_L1D RFO          ACCESS:          0 HIT:          0 MISS:          0 MSHR_MERGE:          0
cpu1->cpu1_L1D PREFETCH     ACCESS:          0 HIT:          0 MISS:          0 MSHR_MERGE:          0
cpu1->cpu1_L1D WRITE        ACCESS:          0 HIT:          0 MISS:          0 MSHR_MERGE:          0
cpu1->cpu1_L1D TRANSLATION  ACCESS:     396406 HIT:       3783 MISS:     392623 MSHR_MERGE:          0
cpu1->cpu1_L1D PREFETCH REQUESTED:          0 ISSUED:          0 USEFUL:          0 USELESS:          0
cpu1->cpu1_L1D AVERAGE MISS LATENCY: 194.7 cycles
cpu1_L1D COHERENCE INVALIDATIONS:          0
cpu1_L1D COHERENCE WRITE-HIT OTHER-SHARER EVENTS:          0
cpu1->cpu1_ITLB TOTAL        ACCESS:   33898794 HIT:   31605136 MISS:    2293658 MSHR_MERGE:      51360
cpu1->cpu1_ITLB LOAD         ACCESS:   33898794 HIT:   31605136 MISS:    2293658 MSHR_MERGE:      51360
cpu1->cpu1_ITLB RFO          ACCESS:          0 HIT:          0 MISS:          0 MSHR_MERGE:          0
cpu1->cpu1_ITLB PREFETCH     ACCESS:          0 HIT:          0 MISS:          0 MSHR_MERGE:          0
cpu1->cpu1_ITLB WRITE        ACCESS:          0 HIT:          0 MISS:          0 MSHR_MERGE:          0
cpu1->cpu1_ITLB TRANSLATION  ACCESS:          0 HIT:          0 MISS:          0 MSHR_MERGE:          0
cpu1->cpu1_ITLB PREFETCH REQUESTED:          0 ISSUED:          0 USEFUL:          0 USELESS:          0
cpu1->cpu1_ITLB AVERAGE MISS LATENCY: 39.23 cycles
cpu1_ITLB COHERENCE INVALIDATIONS:          0
cpu1_ITLB COHERENCE WRITE-HIT OTHER-SHARER EVENTS:          0
cpu1_DTLB COHERENCE INVALIDATIONS:          0
cpu1_DTLB COHERENCE WRITE-HIT OTHER-SHARER EVENTS:          0
cpu0->cpu0_STLB TOTAL        ACCESS:     258635 HIT:     258635 MISS:          0 MSHR_MERGE:          0
cpu0->cpu0_STLB LOAD         ACCESS:     258635 HIT:     258635 MISS:          0 MSHR_MERGE:          0
cpu0->cpu0_STLB RFO          ACCESS:          0 HIT:          0 MISS:          0 MSHR_MERGE:          0
cpu0->cpu0_STLB PREFETCH     ACCESS:          0 HIT:          0 MISS:          0 MSHR_MERGE:          0
cpu0->cpu0_STLB WRITE        ACCESS:          0 HIT:          0 MISS:          0 MSHR_MERGE:          0
cpu0->cpu0_STLB TRANSLATION  ACCESS:          0 HIT:          0 MISS:          0 MSHR_MERGE:          0
cpu0->cpu0_STLB PREFETCH REQUESTED:          0 ISSUED:          0 USEFUL:          0 USELESS:          0
cpu0->cpu0_STLB AVERAGE MISS LATENCY: - cycles
cpu0_STLB COHERENCE INVALIDATIONS:          0
cpu0_STLB COHERENCE WRITE-HIT OTHER-SHARER EVENTS:          0
cpu0->cpu0_L2C TOTAL        ACCESS:    8258436 HIT:    4003880 MISS:    4254556 MSHR_MERGE:          0
cpu0->cpu0_L2C LOAD         ACCESS:    1304917 HIT:     439926 MISS:     864991 MSHR_MERGE:          0
cpu0->cpu0_L2C RFO          ACCESS:    3449877 HIT:      60312 MISS:    3389565 MSHR_MERGE:          0
cpu0->cpu0_L2C PREFETCH     ACCESS:          0 HIT:          0 MISS:          0 MSHR_MERGE:          0
cpu0->cpu0_L2C WRITE        ACCESS:    3503642 HIT:    3503642 MISS:          0 MSHR_MERGE:          0
cpu0->cpu0_L2C TRANSLATION  ACCESS:          0 HIT:          0 MISS:          0 MSHR_MERGE:          0
cpu0->cpu0_L2C PREFETCH REQUESTED:          0 ISSUED:          0 USEFUL:          0 USELESS:          0
cpu0->cpu0_L2C AVERAGE MISS LATENCY: 64.47 cycles
cpu0_L2C COHERENCE INVALIDATIONS:          0
cpu0_L2C COHERENCE WRITE-HIT OTHER-SHARER EVENTS:          0
cpu0->cpu0_L1I TOTAL        ACCESS:  115894325 HIT:  115621441 MISS:     272884 MSHR_MERGE:      85618
cpu0->cpu0_L1I LOAD         ACCESS:  115894325 HIT:  115621441 MISS:     272884 MSHR_MERGE:      85618
cpu0->cpu0_L1I RFO          ACCESS:          0 HIT:          0 MISS:          0 MSHR_MERGE:          0
cpu0->cpu0_L1I PREFETCH     ACCESS:          0 HIT:          0 MISS:          0 MSHR_MERGE:          0
cpu0->cpu0_L1I WRITE        ACCESS:          0 HIT:          0 MISS:          0 MSHR_MERGE:          0
cpu0->cpu0_L1I TRANSLATION  ACCESS:          0 HIT:          0 MISS:          0 MSHR_MERGE:          0
cpu0->cpu0_L1I PREFETCH REQUESTED:          0 ISSUED:          0 USEFUL:          0 USELESS:          0
cpu0->cpu0_L1I AVERAGE MISS LATENCY: 244.9 cycles
cpu0_L1I COHERENCE INVALIDATIONS:          0
cpu0_L1I COHERENCE WRITE-HIT OTHER-SHARER EVENTS:          0
cpu0->cpu0_L1D TOTAL        ACCESS:  139215758 HIT:  125450520 MISS:   13765238 MSHR_MERGE:    9192675
cpu0->cpu0_L1D LOAD         ACCESS:   14258746 HIT:   11901303 MISS:    2357443 MSHR_MERGE:    1239792
cpu0->cpu0_L1D RFO          ACCESS:          0 HIT:          0 MISS:          0 MSHR_MERGE:          0
cpu0->cpu0_L1D PREFETCH     ACCESS:          0 HIT:          0 MISS:          0 MSHR_MERGE:          0
cpu0->cpu0_L1D WRITE        ACCESS:  124957012 HIT:  113549217 MISS:   11407795 MSHR_MERGE:    7952883
cpu0->cpu0_L1D TRANSLATION  ACCESS:          0 HIT:          0 MISS:          0 MSHR_MERGE:          0
cpu0->cpu0_L1D PREFETCH REQUESTED:          0 ISSUED:          0 USEFUL:          0 USELESS:          0
cpu0->cpu0_L1D AVERAGE MISS LATENCY: 58.17 cycles
cpu0_L1D COHERENCE INVALIDATIONS:          0
cpu0_L1D COHERENCE WRITE-HIT OTHER-SHARER EVENTS:          0
cpu0->cpu0_ITLB TOTAL        ACCESS:   96504625 HIT:   96466051 MISS:      38574 MSHR_MERGE:      14976
cpu0->cpu0_ITLB LOAD         ACCESS:   96504625 HIT:   96466051 MISS:      38574 MSHR_MERGE:      14976
cpu0->cpu0_ITLB RFO          ACCESS:          0 HIT:          0 MISS:          0 MSHR_MERGE:          0
cpu0->cpu0_ITLB PREFETCH     ACCESS:          0 HIT:          0 MISS:          0 MSHR_MERGE:          0
cpu0->cpu0_ITLB WRITE        ACCESS:          0 HIT:          0 MISS:          0 MSHR_MERGE:          0
cpu0->cpu0_ITLB TRANSLATION  ACCESS:          0 HIT:          0 MISS:          0 MSHR_MERGE:          0
cpu0->cpu0_ITLB PREFETCH REQUESTED:          0 ISSUED:          0 USEFUL:          0 USELESS:          0
cpu0->cpu0_ITLB AVERAGE MISS LATENCY: 4.008 cycles
cpu0_ITLB COHERENCE INVALIDATIONS:          0
cpu0_ITLB COHERENCE WRITE-HIT OTHER-SHARER EVENTS:          0
cpu0->cpu0_DTLB TOTAL        ACCESS:  115983462 HIT:  115681034 MISS:     302428 MSHR_MERGE:      67391
cpu0->cpu0_DTLB LOAD         ACCESS:  115983462 HIT:  115681034 MISS:     302428 MSHR_MERGE:      67391
cpu0->cpu0_DTLB RFO          ACCESS:          0 HIT:          0 MISS:          0 MSHR_MERGE:          0
cpu0->cpu0_DTLB PREFETCH     ACCESS:          0 HIT:          0 MISS:          0 MSHR_MERGE:          0
cpu0->cpu0_DTLB WRITE        ACCESS:          0 HIT:          0 MISS:          0 MSHR_MERGE:          0
cpu0->cpu0_DTLB TRANSLATION  ACCESS:          0 HIT:          0 MISS:          0 MSHR_MERGE:          0
cpu0->cpu0_DTLB PREFETCH REQUESTED:          0 ISSUED:          0 USEFUL:          0 USELESS:          0
cpu0->cpu0_DTLB AVERAGE MISS LATENCY: 4 cycles
cpu0_DTLB COHERENCE INVALIDATIONS:          0
cpu0_DTLB COHERENCE WRITE-HIT OTHER-SHARER EVENTS:          0
cpu0->LLC TOTAL        ACCESS:    7681730 HIT:    6632799 MISS:    1048931 MSHR_MERGE:     171528
cpu0->LLC LOAD         ACCESS:     864991 HIT:      37092 MISS:     827899 MSHR_MERGE:     171261
cpu0->LLC RFO          ACCESS:    3389565 HIT:    3275141 MISS:     114424 MSHR_MERGE:        267
cpu0->LLC PREFETCH     ACCESS:          0 HIT:          0 MISS:          0 MSHR_MERGE:          0
cpu0->LLC WRITE        ACCESS:    3427174 HIT:    3320566 MISS:     106608 MSHR_MERGE:          0
cpu0->LLC TRANSLATION  ACCESS:          0 HIT:          0 MISS:          0 MSHR_MERGE:          0
cpu0->LLC PREFETCH REQUESTED:          0 ISSUED:          0 USEFUL:          0 USELESS:          0
cpu0->LLC AVERAGE MISS LATENCY: 2053 cycles
cpu1->LLC TOTAL        ACCESS:    1955202 HIT:     201905 MISS:    1753297 MSHR_MERGE:         32
cpu1->LLC LOAD         ACCESS:    1563771 HIT:     121151 MISS:    1442620 MSHR_MERGE:         32
cpu1->LLC RFO          ACCESS:          0 HIT:          0 MISS:          0 MSHR_MERGE:          0
cpu1->LLC PREFETCH     ACCESS:          0 HIT:          0 MISS:          0 MSHR_MERGE:          0
cpu1->LLC WRITE        ACCESS:          0 HIT:          0 MISS:          0 MSHR_MERGE:          0
cpu1->LLC TRANSLATION  ACCESS:     391431 HIT:      80754 MISS:     310677 MSHR_MERGE:          0
cpu1->LLC PREFETCH REQUESTED:          0 ISSUED:          0 USEFUL:          0 USELESS:          0
cpu1->LLC AVERAGE MISS LATENCY: 559 cycles
cpu5->LLC TOTAL        ACCESS:    7683122 HIT:    6879474 MISS:     803648 MSHR_MERGE:     571452
cpu5->LLC LOAD         ACCESS:     864937 HIT:     107169 MISS:     757768 MSHR_MERGE:     570407
cpu5->LLC RFO          ACCESS:    3390357 HIT:    3372724 MISS:      17633 MSHR_MERGE:       1045
cpu5->LLC PREFETCH     ACCESS:          0 HIT:          0 MISS:          0 MSHR_MERGE:          0
cpu5->LLC WRITE        ACCESS:    3427828 HIT:    3399581 MISS:      28247 MSHR_MERGE:          0
cpu5->LLC TRANSLATION  ACCESS:          0 HIT:          0 MISS:          0 MSHR_MERGE:          0
cpu5->LLC PREFETCH REQUESTED:          0 ISSUED:          0 USEFUL:          0 USELESS:          0
cpu5->LLC AVERAGE MISS LATENCY: 1550 cycles
cpu6->LLC TOTAL        ACCESS:    1937787 HIT:     194155 MISS:    1743632 MSHR_MERGE:         32
cpu6->LLC LOAD         ACCESS:    1550105 HIT:     120179 MISS:    1429926 MSHR_MERGE:         32
cpu6->LLC RFO          ACCESS:          0 HIT:          0 MISS:          0 MSHR_MERGE:          0
cpu6->LLC PREFETCH     ACCESS:          0 HIT:          0 MISS:          0 MSHR_MERGE:          0
cpu6->LLC WRITE        ACCESS:          0 HIT:          0 MISS:          0 MSHR_MERGE:          0
cpu6->LLC TRANSLATION  ACCESS:     387682 HIT:      73976 MISS:     313706 MSHR_MERGE:          0
cpu6->LLC PREFETCH REQUESTED:          0 ISSUED:          0 USEFUL:          0 USELESS:          0
cpu6->LLC AVERAGE MISS LATENCY: 562.1 cycles
LLC COHERENCE INVALIDATIONS:    6930421
LLC COHERENCE WRITE-HIT OTHER-SHARER EVENTS:    6720132

DRAM Statistics

Channel 0 RQ ROW_BUFFER_HIT:      21842
  ROW_BUFFER_MISS:    4449326
  AVG DBUS CONGESTED CYCLE: 4.817
Channel 0 WQ ROW_BUFFER_HIT:      43746
  ROW_BUFFER_MISS:      85757
  FULL:          0
Channel 0 REFRESHES ISSUED:      25059

VMEM ALIASED FILLS (cross-CPU shared-page hits): 304964
