[VMEM] WARNING: physical memory size is smaller than virtual memory size.

*** ChampSim Multicore Out-of-Order Simulator ***
Warmup Instructions: 50000000
Simulation Instructions: 100000000
Number of CPUs: 8
Page size: 4096

Off-chip DRAM Size: 16 GiB Channels: 1 Width: 64-bit Data Rate: 3205 MT/s
*** Reached end of trace: (4, "traces/canneal_big4.champsimtrace")
*** Reached end of trace: (3, "traces/canneal_big3.champsimtrace")
*** Reached end of trace: (2, "traces/canneal_big2.champsimtrace")
*** Reached end of trace: (7, "traces/canneal_big2.champsimtrace")
*** Reached end of trace: (0, "traces/canneal_big0.champsimtrace")
*** Reached end of trace: (5, "traces/canneal_big0.champsimtrace")
*** Reached end of trace: (4, "traces/canneal_big4.champsimtrace")
*** Reached end of trace: (3, "traces/canneal_big3.champsimtrace")
Heartbeat CPU 4 instructions: 10000001 cycles: 2503631 heartbeat IPC: 3.994 cumulative IPC: 3.994 (Simulation time: 00 hr 07 min 05 sec)
Heartbeat CPU 3 instructions: 10000001 cycles: 2503657 heartbeat IPC: 3.994 cumulative IPC: 3.994 (Simulation time: 00 hr 07 min 05 sec)
*** Reached end of trace: (2, "traces/canneal_big2.champsimtrace")
*** Reached end of trace: (7, "traces/canneal_big2.champsimtrace")
Heartbeat CPU 2 instructions: 10000001 cycles: 2503806 heartbeat IPC: 3.994 cumulative IPC: 3.994 (Simulation time: 00 hr 07 min 05 sec)
Heartbeat CPU 7 instructions: 10000001 cycles: 2503813 heartbeat IPC: 3.994 cumulative IPC: 3.994 (Simulation time: 00 hr 07 min 05 sec)
*** Reached end of trace: (4, "traces/canneal_big4.champsimtrace")
*** Reached end of trace: (3, "traces/canneal_big3.champsimtrace")
*** Reached end of trace: (2, "traces/canneal_big2.champsimtrace")
*** Reached end of trace: (7, "traces/canneal_big2.champsimtrace")
*** Reached end of trace: (0, "traces/canneal_big0.champsimtrace")
Heartbeat CPU 0 instructions: 10000003 cycles: 3989051 heartbeat IPC: 2.507 cumulative IPC: 2.507 (Simulation time: 00 hr 10 min 41 sec)
*** Reached end of trace: (5, "traces/canneal_big0.champsimtrace")
Heartbeat CPU 5 instructions: 10000003 cycles: 3993457 heartbeat IPC: 2.504 cumulative IPC: 2.504 (Simulation time: 00 hr 10 min 41 sec)
*** Reached end of trace: (6, "traces/canneal_big1.champsimtrace")
*** Reached end of trace: (1, "traces/canneal_big1.champsimtrace")
*** Reached end of trace: (4, "traces/canneal_big4.champsimtrace")
*** Reached end of trace: (3, "traces/canneal_big3.champsimtrace")
Heartbeat CPU 4 instructions: 20000001 cycles: 5003631 heartbeat IPC: 4 cumulative IPC: 3.997 (Simulation time: 00 hr 13 min 08 sec)
Heartbeat CPU 3 instructions: 20000001 cycles: 5003657 heartbeat IPC: 4 cumulative IPC: 3.997 (Simulation time: 00 hr 13 min 08 sec)
*** Reached end of trace: (2, "traces/canneal_big2.champsimtrace")
*** Reached end of trace: (7, "traces/canneal_big2.champsimtrace")
Heartbeat CPU 2 instructions: 20000001 cycles: 5003806 heartbeat IPC: 4 cumulative IPC: 3.997 (Simulation time: 00 hr 13 min 08 sec)
Heartbeat CPU 7 instructions: 20000001 cycles: 5003813 heartbeat IPC: 4 cumulative IPC: 3.997 (Simulation time: 00 hr 13 min 08 sec)
*** Reached end of trace: (0, "traces/canneal_big0.champsimtrace")
*** Reached end of trace: (5, "traces/canneal_big0.champsimtrace")
*** Reached end of trace: (4, "traces/canneal_big4.champsimtrace")
*** Reached end of trace: (3, "traces/canneal_big3.champsimtrace")
*** Reached end of trace: (2, "traces/canneal_big2.champsimtrace")
*** Reached end of trace: (7, "traces/canneal_big2.champsimtrace")
*** Reached end of trace: (1, "traces/canneal_big1.champsimtrace")
Heartbeat CPU 1 instructions: 10000002 cycles: 7297424 heartbeat IPC: 1.37 cumulative IPC: 1.37 (Simulation time: 00 hr 20 min 08 sec)
*** Reached end of trace: (6, "traces/canneal_big1.champsimtrace")
Heartbeat CPU 6 instructions: 10000002 cycles: 7308009 heartbeat IPC: 1.368 cumulative IPC: 1.368 (Simulation time: 00 hr 20 min 10 sec)
*** Reached end of trace: (4, "traces/canneal_big4.champsimtrace")
*** Reached end of trace: (3, "traces/canneal_big3.champsimtrace")
Heartbeat CPU 4 instructions: 30000001 cycles: 7503631 heartbeat IPC: 4 cumulative IPC: 3.998 (Simulation time: 00 hr 20 min 56 sec)
Heartbeat CPU 3 instructions: 30000001 cycles: 7503657 heartbeat IPC: 4 cumulative IPC: 3.998 (Simulation time: 00 hr 20 min 56 sec)
*** Reached end of trace: (2, "traces/canneal_big2.champsimtrace")
*** Reached end of trace: (7, "traces/canneal_big2.champsimtrace")
Heartbeat CPU 2 instructions: 30000001 cycles: 7503806 heartbeat IPC: 4 cumulative IPC: 3.998 (Simulation time: 00 hr 20 min 56 sec)
Heartbeat CPU 7 instructions: 30000001 cycles: 7503813 heartbeat IPC: 4 cumulative IPC: 3.998 (Simulation time: 00 hr 20 min 56 sec)
*** Reached end of trace: (0, "traces/canneal_big0.champsimtrace")
Heartbeat CPU 0 instructions: 20000006 cycles: 7835720 heartbeat IPC: 2.6 cumulative IPC: 2.552 (Simulation time: 00 hr 22 min 07 sec)
*** Reached end of trace: (5, "traces/canneal_big0.champsimtrace")
Heartbeat CPU 5 instructions: 20000006 cycles: 7846924 heartbeat IPC: 2.595 cumulative IPC: 2.549 (Simulation time: 00 hr 22 min 09 sec)
*** Reached end of trace: (4, "traces/canneal_big4.champsimtrace")
*** Reached end of trace: (3, "traces/canneal_big3.champsimtrace")
*** Reached end of trace: (2, "traces/canneal_big2.champsimtrace")
*** Reached end of trace: (7, "traces/canneal_big2.champsimtrace")
*** Reached end of trace: (0, "traces/canneal_big0.champsimtrace")
*** Reached end of trace: (5, "traces/canneal_big0.champsimtrace")
*** Reached end of trace: (4, "traces/canneal_big4.champsimtrace")
*** Reached end of trace: (3, "traces/canneal_big3.champsimtrace")
Heartbeat CPU 4 instructions: 40000001 cycles: 10003631 heartbeat IPC: 4 cumulative IPC: 3.999 (Simulation time: 00 hr 29 min 11 sec)
Heartbeat CPU 3 instructions: 40000001 cycles: 10003657 heartbeat IPC: 4 cumulative IPC: 3.999 (Simulation time: 00 hr 29 min 11 sec)
*** Reached end of trace: (2, "traces/canneal_big2.champsimtrace")
*** Reached end of trace: (7, "traces/canneal_big2.champsimtrace")
Heartbeat CPU 2 instructions: 40000001 cycles: 10003806 heartbeat IPC: 4 cumulative IPC: 3.998 (Simulation time: 00 hr 29 min 11 sec)
Heartbeat CPU 7 instructions: 40000001 cycles: 10003813 heartbeat IPC: 4 cumulative IPC: 3.998 (Simulation time: 00 hr 29 min 11 sec)
*** Reached end of trace: (1, "traces/canneal_big1.champsimtrace")
*** Reached end of trace: (6, "traces/canneal_big1.champsimtrace")
*** Reached end of trace: (4, "traces/canneal_big4.champsimtrace")
*** Reached end of trace: (3, "traces/canneal_big3.champsimtrace")
*** Reached end of trace: (2, "traces/canneal_big2.champsimtrace")
*** Reached end of trace: (7, "traces/canneal_big2.champsimtrace")
*** Reached end of trace: (0, "traces/canneal_big0.champsimtrace")
Heartbeat CPU 0 instructions: 30000009 cycles: 11681818 heartbeat IPC: 2.6 cumulative IPC: 2.568 (Simulation time: 00 hr 34 min 26 sec)
*** Reached end of trace: (5, "traces/canneal_big0.champsimtrace")
Heartbeat CPU 5 instructions: 30000009 cycles: 11701392 heartbeat IPC: 2.594 cumulative IPC: 2.564 (Simulation time: 00 hr 34 min 30 sec)
*** Reached end of trace: (4, "traces/canneal_big4.champsimtrace")
*** Reached end of trace: (3, "traces/canneal_big3.champsimtrace")
Heartbeat CPU 4 instructions: 50000001 cycles: 12503631 heartbeat IPC: 4 cumulative IPC: 3.999 (Simulation time: 00 hr 37 min 29 sec)
Warmup finished CPU 4 instructions: 50000001 cycles: 12503631 cumulative IPC: 3.999 (Simulation time: 00 hr 37 min 29 sec)
Heartbeat CPU 3 instructions: 50000001 cycles: 12503657 heartbeat IPC: 4 cumulative IPC: 3.999 (Simulation time: 00 hr 37 min 29 sec)
Warmup finished CPU 3 instructions: 50000001 cycles: 12503657 cumulative IPC: 3.999 (Simulation time: 00 hr 37 min 29 sec)
*** Reached end of trace: (2, "traces/canneal_big2.champsimtrace")
*** Reached end of trace: (7, "traces/canneal_big2.champsimtrace")
Heartbeat CPU 2 instructions: 50000001 cycles: 12503806 heartbeat IPC: 4 cumulative IPC: 3.999 (Simulation time: 00 hr 37 min 29 sec)
Warmup finished CPU 2 instructions: 50000001 cycles: 12503806 cumulative IPC: 3.999 (Simulation time: 00 hr 37 min 29 sec)
Heartbeat CPU 7 instructions: 50000001 cycles: 12503813 heartbeat IPC: 4 cumulative IPC: 3.999 (Simulation time: 00 hr 37 min 29 sec)
Warmup finished CPU 7 instructions: 50000001 cycles: 12503813 cumulative IPC: 3.999 (Simulation time: 00 hr 37 min 29 sec)
*** Reached end of trace: (1, "traces/canneal_big1.champsimtrace")
Heartbeat CPU 1 instructions: 20000004 cycles: 12981549 heartbeat IPC: 1.759 cumulative IPC: 1.541 (Simulation time: 00 hr 39 min 05 sec)
*** Reached end of trace: (6, "traces/canneal_big1.champsimtrace")
Heartbeat CPU 6 instructions: 20000004 cycles: 13022360 heartbeat IPC: 1.75 cumulative IPC: 1.536 (Simulation time: 00 hr 39 min 13 sec)
*** Reached end of trace: (0, "traces/canneal_big0.champsimtrace")
*** Reached end of trace: (5, "traces/canneal_big0.champsimtrace")
*** Reached end of trace: (4, "traces/canneal_big4.champsimtrace")
*** Reached end of trace: (3, "traces/canneal_big3.champsimtrace")
*** Reached end of trace: (2, "traces/canneal_big2.champsimtrace")
*** Reached end of trace: (7, "traces/canneal_big2.champsimtrace")
*** Reached end of trace: (4, "traces/canneal_big4.champsimtrace")
*** Reached end of trace: (3, "traces/canneal_big3.champsimtrace")
Heartbeat CPU 4 instructions: 60000001 cycles: 15003631 heartbeat IPC: 4 cumulative IPC: 3.999 (Simulation time: 00 hr 44 min 48 sec)
Heartbeat CPU 3 instructions: 60000001 cycles: 15003657 heartbeat IPC: 4 cumulative IPC: 3.999 (Simulation time: 00 hr 44 min 48 sec)
*** Reached end of trace: (2, "traces/canneal_big2.champsimtrace")
*** Reached end of trace: (7, "traces/canneal_big2.champsimtrace")
Heartbeat CPU 2 instructions: 60000001 cycles: 15003806 heartbeat IPC: 4 cumulative IPC: 3.999 (Simulation time: 00 hr 44 min 48 sec)
Heartbeat CPU 7 instructions: 60000001 cycles: 15003813 heartbeat IPC: 4 cumulative IPC: 3.999 (Simulation time: 00 hr 44 min 48 sec)
*** Reached end of trace: (0, "traces/canneal_big0.champsimtrace")
Heartbeat CPU 0 instructions: 40000012 cycles: 15527492 heartbeat IPC: 2.6 cumulative IPC: 2.576 (Simulation time: 00 hr 46 min 03 sec)
*** Reached end of trace: (5, "traces/canneal_big0.champsimtrace")
Heartbeat CPU 5 instructions: 40000012 cycles: 15555413 heartbeat IPC: 2.595 cumulative IPC: 2.571 (Simulation time: 00 hr 46 min 08 sec)
*** Reached end of trace: (1, "traces/canneal_big1.champsimtrace")
*** Reached end of trace: (6, "traces/canneal_big1.champsimtrace")
*** Reached end of trace: (4, "traces/canneal_big4.champsimtrace")
*** Reached end of trace: (3, "traces/canneal_big3.champsimtrace")
*** Reached end of trace: (2, "traces/canneal_big2.champsimtrace")
*** Reached end of trace: (7, "traces/canneal_big2.champsimtrace")
*** Reached end of trace: (0, "traces/canneal_big0.champsimtrace")
*** Reached end of trace: (5, "traces/canneal_big0.champsimtrace")
*** Reached end of trace: (4, "traces/canneal_big4.champsimtrace")
*** Reached end of trace: (3, "traces/canneal_big3.champsimtrace")
Heartbeat CPU 4 instructions: 70000001 cycles: 17503631 heartbeat IPC: 4 cumulative IPC: 3.999 (Simulation time: 00 hr 52 min 58 sec)
Heartbeat CPU 3 instructions: 70000001 cycles: 17503657 heartbeat IPC: 4 cumulative IPC: 3.999 (Simulation time: 00 hr 52 min 58 sec)
*** Reached end of trace: (2, "traces/canneal_big2.champsimtrace")
*** Reached end of trace: (7, "traces/canneal_big2.champsimtrace")
Heartbeat CPU 2 instructions: 70000001 cycles: 17503806 heartbeat IPC: 4 cumulative IPC: 3.999 (Simulation time: 00 hr 52 min 58 sec)
Heartbeat CPU 7 instructions: 70000001 cycles: 17503813 heartbeat IPC: 4 cumulative IPC: 3.999 (Simulation time: 00 hr 52 min 58 sec)
*** Reached end of trace: (1, "traces/canneal_big1.champsimtrace")
Heartbeat CPU 1 instructions: 30000004 cycles: 18663390 heartbeat IPC: 1.76 cumulative IPC: 1.607 (Simulation time: 00 hr 57 min 09 sec)
*** Reached end of trace: (6, "traces/canneal_big1.champsimtrace")
Heartbeat CPU 6 instructions: 30000004 cycles: 18739251 heartbeat IPC: 1.749 cumulative IPC: 1.601 (Simulation time: 00 hr 57 min 26 sec)
*** Reached end of trace: (4, "traces/canneal_big4.champsimtrace")
*** Reached end of trace: (3, "traces/canneal_big3.champsimtrace")
*** Reached end of trace: (2, "traces/canneal_big2.champsimtrace")
*** Reached end of trace: (7, "traces/canneal_big2.champsimtrace")
*** Reached end of trace: (0, "traces/canneal_big0.champsimtrace")
Warmup finished CPU 0 instructions: 50000000 cycles: 19373678 cumulative IPC: 2.581 (Simulation time: 00 hr 59 min 24 sec)
Heartbeat CPU 0 instructions: 50000015 cycles: 19373681 heartbeat IPC: 2.6 cumulative IPC: 2.581 (Simulation time: 00 hr 59 min 24 sec)
*** Reached end of trace: (5, "traces/canneal_big0.champsimtrace")
Warmup finished CPU 5 instructions: 50000000 cycles: 19409824 cumulative IPC: 2.576 (Simulation time: 00 hr 59 min 32 sec)
Heartbeat CPU 5 instructions: 50000015 cycles: 19409827 heartbeat IPC: 2.594 cumulative IPC: 2.576 (Simulation time: 00 hr 59 min 32 sec)
*** Reached end of trace: (4, "traces/canneal_big4.champsimtrace")
*** Reached end of trace: (3, "traces/canneal_big3.champsimtrace")
Heartbeat CPU 4 instructions: 80000001 cycles: 20003631 heartbeat IPC: 4 cumulative IPC: 3.999 (Simulation time: 01 hr 01 min 09 sec)
Heartbeat CPU 3 instructions: 80000001 cycles: 20003657 heartbeat IPC: 4 cumulative IPC: 3.999 (Simulation time: 01 hr 01 min 09 sec)
*** Reached end of trace: (2, "traces/canneal_big2.champsimtrace")
*** Reached end of trace: (7, "traces/canneal_big2.champsimtrace")
Heartbeat CPU 2 instructions: 80000001 cycles: 20003806 heartbeat IPC: 4 cumulative IPC: 3.999 (Simulation time: 01 hr 01 min 09 sec)
Heartbeat CPU 7 instructions: 80000001 cycles: 20003813 heartbeat IPC: 4 cumulative IPC: 3.999 (Simulation time: 01 hr 01 min 09 sec)
*** Reached end of trace: (4, "traces/canneal_big4.champsimtrace")
*** Reached end of trace: (3, "traces/canneal_big3.champsimtrace")
*** Reached end of trace: (2, "traces/canneal_big2.champsimtrace")
*** Reached end of trace: (7, "traces/canneal_big2.champsimtrace")
*** Reached end of trace: (0, "traces/canneal_big0.champsimtrace")
*** Reached end of trace: (5, "traces/canneal_big0.champsimtrace")
*** Reached end of trace: (1, "traces/canneal_big1.champsimtrace")
*** Reached end of trace: (6, "traces/canneal_big1.champsimtrace")
*** Reached end of trace: (4, "traces/canneal_big4.champsimtrace")
*** Reached end of trace: (3, "traces/canneal_big3.champsimtrace")
Heartbeat CPU 4 instructions: 90000001 cycles: 22503631 heartbeat IPC: 4 cumulative IPC: 3.999 (Simulation time: 01 hr 07 min 32 sec)
Heartbeat CPU 3 instructions: 90000001 cycles: 22503657 heartbeat IPC: 4 cumulative IPC: 3.999 (Simulation time: 01 hr 07 min 32 sec)
*** Reached end of trace: (2, "traces/canneal_big2.champsimtrace")
*** Reached end of trace: (7, "traces/canneal_big2.champsimtrace")
Heartbeat CPU 2 instructions: 90000001 cycles: 22503806 heartbeat IPC: 4 cumulative IPC: 3.999 (Simulation time: 01 hr 07 min 32 sec)
Heartbeat CPU 7 instructions: 90000001 cycles: 22503813 heartbeat IPC: 4 cumulative IPC: 3.999 (Simulation time: 01 hr 07 min 32 sec)
*** Reached end of trace: (0, "traces/canneal_big0.champsimtrace")
Heartbeat CPU 0 instructions: 60000018 cycles: 23218289 heartbeat IPC: 2.601 cumulative IPC: 2.584 (Simulation time: 01 hr 09 min 17 sec)
*** Reached end of trace: (5, "traces/canneal_big0.champsimtrace")
Heartbeat CPU 5 instructions: 60000018 cycles: 23264020 heartbeat IPC: 2.595 cumulative IPC: 2.579 (Simulation time: 01 hr 09 min 23 sec)
*** Reached end of trace: (4, "traces/canneal_big4.champsimtrace")
*** Reached end of trace: (3, "traces/canneal_big3.champsimtrace")
*** Reached end of trace: (2, "traces/canneal_big2.champsimtrace")
*** Reached end of trace: (7, "traces/canneal_big2.champsimtrace")
*** Reached end of trace: (1, "traces/canneal_big1.champsimtrace")
Heartbeat CPU 1 instructions: 40000006 cycles: 24344171 heartbeat IPC: 1.76 cumulative IPC: 1.643 (Simulation time: 01 hr 12 min 02 sec)
*** Reached end of trace: (6, "traces/canneal_big1.champsimtrace")
Heartbeat CPU 6 instructions: 40000006 cycles: 24456825 heartbeat IPC: 1.749 cumulative IPC: 1.636 (Simulation time: 01 hr 12 min 18 sec)
*** Reached end of trace: (4, "traces/canneal_big4.champsimtrace")
*** Reached end of trace: (3, "traces/canneal_big3.champsimtrace")
Heartbeat CPU 4 instructions: 100000001 cycles: 25003631 heartbeat IPC: 4 cumulative IPC: 3.999 (Simulation time: 01 hr 13 min 36 sec)
Heartbeat CPU 3 instructions: 100000001 cycles: 25003657 heartbeat IPC: 4 cumulative IPC: 3.999 (Simulation time: 01 hr 13 min 36 sec)
*** Reached end of trace: (2, "traces/canneal_big2.champsimtrace")
*** Reached end of trace: (7, "traces/canneal_big2.champsimtrace")
Heartbeat CPU 2 instructions: 100000001 cycles: 25003806 heartbeat IPC: 4 cumulative IPC: 3.999 (Simulation time: 01 hr 13 min 36 sec)
Heartbeat CPU 7 instructions: 100000001 cycles: 25003813 heartbeat IPC: 4 cumulative IPC: 3.999 (Simulation time: 01 hr 13 min 36 sec)
*** Reached end of trace: (0, "traces/canneal_big0.champsimtrace")
*** Reached end of trace: (5, "traces/canneal_big0.champsimtrace")
*** Reached end of trace: (4, "traces/canneal_big4.champsimtrace")
*** Reached end of trace: (3, "traces/canneal_big3.champsimtrace")
*** Reached end of trace: (2, "traces/canneal_big2.champsimtrace")
*** Reached end of trace: (7, "traces/canneal_big2.champsimtrace")
*** Reached end of trace: (0, "traces/canneal_big0.champsimtrace")
Heartbeat CPU 0 instructions: 70000021 cycles: 27063205 heartbeat IPC: 2.601 cumulative IPC: 2.587 (Simulation time: 01 hr 21 min 13 sec)
*** Reached end of trace: (5, "traces/canneal_big0.champsimtrace")
Heartbeat CPU 5 instructions: 70000021 cycles: 27117786 heartbeat IPC: 2.595 cumulative IPC: 2.581 (Simulation time: 01 hr 21 min 26 sec)
*** Reached end of trace: (1, "traces/canneal_big1.champsimtrace")
*** Reached end of trace: (6, "traces/canneal_big1.champsimtrace")
*** Reached end of trace: (4, "traces/canneal_big4.champsimtrace")
*** Reached end of trace: (3, "traces/canneal_big3.champsimtrace")
Heartbeat CPU 4 instructions: 110000001 cycles: 27503631 heartbeat IPC: 4 cumulative IPC: 3.999 (Simulation time: 01 hr 22 min 58 sec)
Heartbeat CPU 3 instructions: 110000001 cycles: 27503657 heartbeat IPC: 4 cumulative IPC: 3.999 (Simulation time: 01 hr 22 min 58 sec)
*** Reached end of trace: (2, "traces/canneal_big2.champsimtrace")
*** Reached end of trace: (7, "traces/canneal_big2.champsimtrace")
Heartbeat CPU 2 instructions: 110000001 cycles: 27503806 heartbeat IPC: 4 cumulative IPC: 3.999 (Simulation time: 01 hr 22 min 58 sec)
Heartbeat CPU 7 instructions: 110000001 cycles: 27503813 heartbeat IPC: 4 cumulative IPC: 3.999 (Simulation time: 01 hr 22 min 58 sec)
*** Reached end of trace: (4, "traces/canneal_big4.champsimtrace")
*** Reached end of trace: (3, "traces/canneal_big3.champsimtrace")
*** Reached end of trace: (2, "traces/canneal_big2.champsimtrace")
*** Reached end of trace: (7, "traces/canneal_big2.champsimtrace")
*** Reached end of trace: (0, "traces/canneal_big0.champsimtrace")
*** Reached end of trace: (5, "traces/canneal_big0.champsimtrace")
*** Reached end of trace: (4, "traces/canneal_big4.champsimtrace")
*** Reached end of trace: (3, "traces/canneal_big3.champsimtrace")
Heartbeat CPU 4 instructions: 120000001 cycles: 30003631 heartbeat IPC: 4 cumulative IPC: 4 (Simulation time: 01 hr 31 min 23 sec)
Heartbeat CPU 3 instructions: 120000001 cycles: 30003657 heartbeat IPC: 4 cumulative IPC: 4 (Simulation time: 01 hr 31 min 23 sec)
*** Reached end of trace: (2, "traces/canneal_big2.champsimtrace")
*** Reached end of trace: (7, "traces/canneal_big2.champsimtrace")
Heartbeat CPU 2 instructions: 120000001 cycles: 30003806 heartbeat IPC: 4 cumulative IPC: 3.999 (Simulation time: 01 hr 31 min 23 sec)
Heartbeat CPU 7 instructions: 120000001 cycles: 30003813 heartbeat IPC: 4 cumulative IPC: 3.999 (Simulation time: 01 hr 31 min 23 sec)
*** Reached end of trace: (1, "traces/canneal_big1.champsimtrace")
Warmup finished CPU 1 instructions: 50000000 cycles: 30024699 cumulative IPC: 1.665 (Simulation time: 01 hr 31 min 27 sec)
Heartbeat CPU 1 instructions: 50000008 cycles: 30024722 heartbeat IPC: 1.76 cumulative IPC: 1.665 (Simulation time: 01 hr 31 min 27 sec)
*** Reached end of trace: (6, "traces/canneal_big1.champsimtrace")
Warmup finished CPU 6 instructions: 50000000 cycles: 30173996 cumulative IPC: 1.657 (Simulation time: 01 hr 31 min 49 sec)
Warmup complete CPU 7 instructions: 120680733 cycles: 30173996 cumulative IPC: 3.999 (Simulation time: 01 hr 31 min 49 sec)
Warmup complete CPU 6 instructions: 50000000 cycles: 30173996 cumulative IPC: 1.657 (Simulation time: 01 hr 31 min 49 sec)
Warmup complete CPU 5 instructions: 78077294 cycles: 30173996 cumulative IPC: 2.588 (Simulation time: 01 hr 31 min 49 sec)
Warmup complete CPU 4 instructions: 120681461 cycles: 30173996 cumulative IPC: 4 (Simulation time: 01 hr 31 min 49 sec)
Warmup complete CPU 3 instructions: 120681357 cycles: 30173996 cumulative IPC: 4 (Simulation time: 01 hr 31 min 49 sec)
Warmup complete CPU 2 instructions: 120680761 cycles: 30173996 cumulative IPC: 3.999 (Simulation time: 01 hr 31 min 49 sec)
Warmup complete CPU 1 instructions: 50225625 cycles: 30173996 cumulative IPC: 1.665 (Simulation time: 01 hr 31 min 49 sec)
Warmup complete CPU 0 instructions: 78226319 cycles: 30173996 cumulative IPC: 2.593 (Simulation time: 01 hr 31 min 49 sec)
Heartbeat CPU 6 instructions: 50000008 cycles: 30174377 heartbeat IPC: 1.749 cumulative IPC: 0.021 (Simulation time: 01 hr 31 min 49 sec)
*** Reached end of trace: (0, "traces/canneal_big0.champsimtrace")
Heartbeat CPU 0 instructions: 80000024 cycles: 30907653 heartbeat IPC: 2.601 cumulative IPC: 2.418 (Simulation time: 01 hr 33 min 36 sec)
*** Reached end of trace: (5, "traces/canneal_big0.champsimtrace")
Heartbeat CPU 5 instructions: 80000024 cycles: 30968859 heartbeat IPC: 2.597 cumulative IPC: 2.419 (Simulation time: 01 hr 33 min 45 sec)
*** Reached end of trace: (4, "traces/canneal_big4.champsimtrace")
*** Reached end of trace: (3, "traces/canneal_big3.champsimtrace")
*** Reached end of trace: (2, "traces/canneal_big2.champsimtrace")
*** Reached end of trace: (7, "traces/canneal_big2.champsimtrace")
*** Reached end of trace: (4, "traces/canneal_big4.champsimtrace")
*** Reached end of trace: (3, "traces/canneal_big3.champsimtrace")
Heartbeat CPU 4 instructions: 130000001 cycles: 32503631 heartbeat IPC: 4 cumulative IPC: 4 (Simulation time: 01 hr 37 min 31 sec)
Heartbeat CPU 3 instructions: 130000001 cycles: 32503657 heartbeat IPC: 4 cumulative IPC: 4 (Simulation time: 01 hr 37 min 31 sec)
*** Reached end of trace: (2, "traces/canneal_big2.champsimtrace")
*** Reached end of trace: (7, "traces/canneal_big2.champsimtrace")
Heartbeat CPU 2 instructions: 130000001 cycles: 32503806 heartbeat IPC: 4 cumulative IPC: 4 (Simulation time: 01 hr 37 min 31 sec)
Heartbeat CPU 7 instructions: 130000001 cycles: 32503813 heartbeat IPC: 4 cumulative IPC: 4 (Simulation time: 01 hr 37 min 31 sec)
*** Reached end of trace: (0, "traces/canneal_big0.champsimtrace")
*** Reached end of trace: (5, "traces/canneal_big0.champsimtrace")
*** Reached end of trace: (4, "traces/canneal_big4.champsimtrace")
*** Reached end of trace: (3, "traces/canneal_big3.champsimtrace")
*** Reached end of trace: (2, "traces/canneal_big2.champsimtrace")
*** Reached end of trace: (7, "traces/canneal_big2.champsimtrace")
*** Reached end of trace: (4, "traces/canneal_big4.champsimtrace")
*** Reached end of trace: (3, "traces/canneal_big3.champsimtrace")
Heartbeat CPU 4 instructions: 140000001 cycles: 35003631 heartbeat IPC: 4 cumulative IPC: 4 (Simulation time: 01 hr 45 min 30 sec)
Heartbeat CPU 3 instructions: 140000001 cycles: 35003657 heartbeat IPC: 4 cumulative IPC: 4 (Simulation time: 01 hr 45 min 30 sec)
*** Reached end of trace: (2, "traces/canneal_big2.champsimtrace")
*** Reached end of trace: (7, "traces/canneal_big2.champsimtrace")
Heartbeat CPU 2 instructions: 140000001 cycles: 35003806 heartbeat IPC: 4 cumulative IPC: 4 (Simulation time: 01 hr 45 min 30 sec)
Heartbeat CPU 7 instructions: 140000001 cycles: 35003813 heartbeat IPC: 4 cumulative IPC: 4 (Simulation time: 01 hr 45 min 30 sec)
*** Reached end of trace: (0, "traces/canneal_big0.champsimtrace")
Heartbeat CPU 0 instructions: 90000027 cycles: 35376019 heartbeat IPC: 2.238 cumulative IPC: 2.263 (Simulation time: 01 hr 46 min 43 sec)
*** Reached end of trace: (5, "traces/canneal_big0.champsimtrace")
Heartbeat CPU 5 instructions: 90000027 cycles: 35445220 heartbeat IPC: 2.234 cumulative IPC: 2.262 (Simulation time: 01 hr 47 min 00 sec)
*** Reached end of trace: (4, "traces/canneal_big4.champsimtrace")
*** Reached end of trace: (3, "traces/canneal_big3.champsimtrace")
*** Reached end of trace: (2, "traces/canneal_big2.champsimtrace")
*** Reached end of trace: (7, "traces/canneal_big2.champsimtrace")
*** Reached end of trace: (4, "traces/canneal_big4.champsimtrace")
*** Reached end of trace: (3, "traces/canneal_big3.champsimtrace")
Heartbeat CPU 4 instructions: 150000001 cycles: 37503631 heartbeat IPC: 4 cumulative IPC: 4 (Simulation time: 01 hr 54 min 39 sec)
Heartbeat CPU 3 instructions: 150000001 cycles: 37503657 heartbeat IPC: 4 cumulative IPC: 4 (Simulation time: 01 hr 54 min 39 sec)
*** Reached end of trace: (2, "traces/canneal_big2.champsimtrace")
*** Reached end of trace: (7, "traces/canneal_big2.champsimtrace")
Heartbeat CPU 2 instructions: 150000001 cycles: 37503806 heartbeat IPC: 4 cumulative IPC: 4 (Simulation time: 01 hr 54 min 39 sec)
Heartbeat CPU 7 instructions: 150000001 cycles: 37503813 heartbeat IPC: 4 cumulative IPC: 4 (Simulation time: 01 hr 54 min 39 sec)
*** Reached end of trace: (0, "traces/canneal_big0.champsimtrace")
*** Reached end of trace: (5, "traces/canneal_big0.champsimtrace")
*** Reached end of trace: (4, "traces/canneal_big4.champsimtrace")
*** Reached end of trace: (3, "traces/canneal_big3.champsimtrace")
*** Reached end of trace: (2, "traces/canneal_big2.champsimtrace")
*** Reached end of trace: (7, "traces/canneal_big2.champsimtrace")
*** Reached end of trace: (0, "traces/canneal_big0.champsimtrace")
Heartbeat CPU 0 instructions: 100000027 cycles: 39627053 heartbeat IPC: 2.352 cumulative IPC: 2.303 (Simulation time: 02 hr 02 min 07 sec)
*** Reached end of trace: (5, "traces/canneal_big0.champsimtrace")
Heartbeat CPU 5 instructions: 100000030 cycles: 39746811 heartbeat IPC: 2.325 cumulative IPC: 2.29 (Simulation time: 02 hr 02 min 26 sec)
*** Reached end of trace: (4, "traces/canneal_big4.champsimtrace")
*** Reached end of trace: (3, "traces/canneal_big3.champsimtrace")
Heartbeat CPU 4 instructions: 160000001 cycles: 40003631 heartbeat IPC: 4 cumulative IPC: 4 (Simulation time: 02 hr 03 min 03 sec)
Heartbeat CPU 3 instructions: 160000001 cycles: 40003657 heartbeat IPC: 4 cumulative IPC: 4 (Simulation time: 02 hr 03 min 03 sec)
*** Reached end of trace: (2, "traces/canneal_big2.champsimtrace")
*** Reached end of trace: (7, "traces/canneal_big2.champsimtrace")
Heartbeat CPU 2 instructions: 160000001 cycles: 40003806 heartbeat IPC: 4 cumulative IPC: 4 (Simulation time: 02 hr 03 min 03 sec)
Heartbeat CPU 7 instructions: 160000001 cycles: 40003813 heartbeat IPC: 4 cumulative IPC: 4 (Simulation time: 02 hr 03 min 03 sec)
*** Reached end of trace: (4, "traces/canneal_big4.champsimtrace")
*** Reached end of trace: (3, "traces/canneal_big3.champsimtrace")
*** Reached end of trace: (2, "traces/canneal_big2.champsimtrace")
*** Reached end of trace: (7, "traces/canneal_big2.champsimtrace")
*** Reached end of trace: (0, "traces/canneal_big0.champsimtrace")
*** Reached end of trace: (5, "traces/canneal_big0.champsimtrace")
*** Reached end of trace: (4, "traces/canneal_big4.champsimtrace")
*** Reached end of trace: (3, "traces/canneal_big3.champsimtrace")
Heartbeat CPU 4 instructions: 170000001 cycles: 42503631 heartbeat IPC: 4 cumulative IPC: 4 (Simulation time: 02 hr 08 min 58 sec)
Heartbeat CPU 3 instructions: 170000001 cycles: 42503657 heartbeat IPC: 4 cumulative IPC: 4 (Simulation time: 02 hr 08 min 58 sec)
*** Reached end of trace: (2, "traces/canneal_big2.champsimtrace")
*** Reached end of trace: (7, "traces/canneal_big2.champsimtrace")
Heartbeat CPU 2 instructions: 170000001 cycles: 42503806 heartbeat IPC: 4 cumulative IPC: 4 (Simulation time: 02 hr 08 min 58 sec)
Heartbeat CPU 7 instructions: 170000001 cycles: 42503813 heartbeat IPC: 4 cumulative IPC: 4 (Simulation time: 02 hr 08 min 58 sec)
*** Reached end of trace: (4, "traces/canneal_big4.champsimtrace")
*** Reached end of trace: (3, "traces/canneal_big3.champsimtrace")
*** Reached end of trace: (2, "traces/canneal_big2.champsimtrace")
*** Reached end of trace: (7, "traces/canneal_big2.champsimtrace")
*** Reached end of trace: (0, "traces/canneal_big0.champsimtrace")
Heartbeat CPU 0 instructions: 110000028 cycles: 43850452 heartbeat IPC: 2.368 cumulative IPC: 2.323 (Simulation time: 02 hr 12 min 14 sec)
*** Reached end of trace: (5, "traces/canneal_big0.champsimtrace")
Heartbeat CPU 5 instructions: 110000033 cycles: 44017243 heartbeat IPC: 2.342 cumulative IPC: 2.306 (Simulation time: 02 hr 12 min 40 sec)
*** Reached end of trace: (4, "traces/canneal_big4.champsimtrace")
*** Reached end of trace: (3, "traces/canneal_big3.champsimtrace")
Heartbeat CPU 4 instructions: 180000001 cycles: 45003631 heartbeat IPC: 4 cumulative IPC: 4 (Simulation time: 02 hr 14 min 59 sec)
Heartbeat CPU 3 instructions: 180000001 cycles: 45003657 heartbeat IPC: 4 cumulative IPC: 4 (Simulation time: 02 hr 14 min 59 sec)
*** Reached end of trace: (2, "traces/canneal_big2.champsimtrace")
*** Reached end of trace: (7, "traces/canneal_big2.champsimtrace")
Heartbeat CPU 2 instructions: 180000001 cycles: 45003806 heartbeat IPC: 4 cumulative IPC: 4 (Simulation time: 02 hr 14 min 59 sec)
Heartbeat CPU 7 instructions: 180000001 cycles: 45003813 heartbeat IPC: 4 cumulative IPC: 4 (Simulation time: 02 hr 14 min 59 sec)
*** Reached end of trace: (0, "traces/canneal_big0.champsimtrace")
*** Reached end of trace: (5, "traces/canneal_big0.champsimtrace")
*** Reached end of trace: (4, "traces/canneal_big4.champsimtrace")
*** Reached end of trace: (3, "traces/canneal_big3.champsimtrace")
*** Reached end of trace: (2, "traces/canneal_big2.champsimtrace")
*** Reached end of trace: (7, "traces/canneal_big2.champsimtrace")
*** Reached end of trace: (1, "traces/canneal_big1.champsimtrace")
*** Reached end of trace: (4, "traces/canneal_big4.champsimtrace")
*** Reached end of trace: (3, "traces/canneal_big3.champsimtrace")
Heartbeat CPU 4 instructions: 190000001 cycles: 47503631 heartbeat IPC: 4 cumulative IPC: 4 (Simulation time: 02 hr 23 min 51 sec)
Heartbeat CPU 3 instructions: 190000001 cycles: 47503657 heartbeat IPC: 4 cumulative IPC: 4 (Simulation time: 02 hr 23 min 51 sec)
*** Reached end of trace: (2, "traces/canneal_big2.champsimtrace")
*** Reached end of trace: (7, "traces/canneal_big2.champsimtrace")
Heartbeat CPU 2 instructions: 190000001 cycles: 47503806 heartbeat IPC: 4 cumulative IPC: 4 (Simulation time: 02 hr 23 min 51 sec)
Heartbeat CPU 7 instructions: 190000001 cycles: 47503813 heartbeat IPC: 4 cumulative IPC: 4 (Simulation time: 02 hr 23 min 51 sec)
*** Reached end of trace: (0, "traces/canneal_big0.champsimtrace")
Heartbeat CPU 0 instructions: 120000031 cycles: 48065062 heartbeat IPC: 2.373 cumulative IPC: 2.335 (Simulation time: 02 hr 25 min 46 sec)
*** Reached end of trace: (6, "traces/canneal_big1.champsimtrace")
*** Reached end of trace: (5, "traces/canneal_big0.champsimtrace")
Heartbeat CPU 5 instructions: 120000036 cycles: 48272630 heartbeat IPC: 2.35 cumulative IPC: 2.316 (Simulation time: 02 hr 26 min 34 sec)
*** Reached end of trace: (4, "traces/canneal_big4.champsimtrace")
*** Reached end of trace: (3, "traces/canneal_big3.champsimtrace")
*** Reached end of trace: (2, "traces/canneal_big2.champsimtrace")
*** Reached end of trace: (7, "traces/canneal_big2.champsimtrace")
*** Reached end of trace: (4, "traces/canneal_big4.champsimtrace")
*** Reached end of trace: (3, "traces/canneal_big3.champsimtrace")
Heartbeat CPU 4 instructions: 200000001 cycles: 50003631 heartbeat IPC: 4 cumulative IPC: 4 (Simulation time: 02 hr 32 min 22 sec)
Heartbeat CPU 3 instructions: 200000001 cycles: 50003657 heartbeat IPC: 4 cumulative IPC: 4 (Simulation time: 02 hr 32 min 22 sec)
*** Reached end of trace: (2, "traces/canneal_big2.champsimtrace")
*** Reached end of trace: (7, "traces/canneal_big2.champsimtrace")
Heartbeat CPU 2 instructions: 200000001 cycles: 50003806 heartbeat IPC: 4 cumulative IPC: 4 (Simulation time: 02 hr 32 min 22 sec)
Heartbeat CPU 7 instructions: 200000001 cycles: 50003813 heartbeat IPC: 4 cumulative IPC: 4 (Simulation time: 02 hr 32 min 22 sec)
*** Reached end of trace: (0, "traces/canneal_big0.champsimtrace")
*** Reached end of trace: (5, "traces/canneal_big0.champsimtrace")
*** Reached end of trace: (4, "traces/canneal_big4.champsimtrace")
*** Reached end of trace: (3, "traces/canneal_big3.champsimtrace")
*** Reached end of trace: (2, "traces/canneal_big2.champsimtrace")
*** Reached end of trace: (7, "traces/canneal_big2.champsimtrace")
*** Reached end of trace: (0, "traces/canneal_big0.champsimtrace")
Heartbeat CPU 0 instructions: 130000031 cycles: 52277581 heartbeat IPC: 2.374 cumulative IPC: 2.342 (Simulation time: 02 hr 38 min 31 sec)
*** Reached end of trace: (4, "traces/canneal_big4.champsimtrace")
*** Reached end of trace: (3, "traces/canneal_big3.champsimtrace")
Heartbeat CPU 4 instructions: 210000001 cycles: 52503631 heartbeat IPC: 4 cumulative IPC: 4 (Simulation time: 02 hr 39 min 03 sec)
Heartbeat CPU 3 instructions: 210000001 cycles: 52503657 heartbeat IPC: 4 cumulative IPC: 4 (Simulation time: 02 hr 39 min 03 sec)
*** Reached end of trace: (2, "traces/canneal_big2.champsimtrace")
*** Reached end of trace: (7, "traces/canneal_big2.champsimtrace")
Heartbeat CPU 2 instructions: 210000001 cycles: 52503806 heartbeat IPC: 4 cumulative IPC: 4 (Simulation time: 02 hr 39 min 03 sec)
Heartbeat CPU 7 instructions: 210000001 cycles: 52503813 heartbeat IPC: 4 cumulative IPC: 4 (Simulation time: 02 hr 39 min 03 sec)
*** Reached end of trace: (5, "traces/canneal_big0.champsimtrace")
Heartbeat CPU 5 instructions: 130000039 cycles: 52543121 heartbeat IPC: 2.342 cumulative IPC: 2.321 (Simulation time: 02 hr 39 min 09 sec)
*** Reached end of trace: (4, "traces/canneal_big4.champsimtrace")
*** Reached end of trace: (3, "traces/canneal_big3.champsimtrace")
*** Reached end of trace: (2, "traces/canneal_big2.champsimtrace")
*** Reached end of trace: (7, "traces/canneal_big2.champsimtrace")
*** Reached end of trace: (0, "traces/canneal_big0.champsimtrace")
*** Reached end of trace: (5, "traces/canneal_big0.champsimtrace")
*** Reached end of trace: (4, "traces/canneal_big4.champsimtrace")
*** Reached end of trace: (3, "traces/canneal_big3.champsimtrace")
Heartbeat CPU 4 instructions: 220000001 cycles: 55003631 heartbeat IPC: 4 cumulative IPC: 4 (Simulation time: 02 hr 45 min 39 sec)
Heartbeat CPU 3 instructions: 220000001 cycles: 55003657 heartbeat IPC: 4 cumulative IPC: 4 (Simulation time: 02 hr 45 min 39 sec)
*** Reached end of trace: (2, "traces/canneal_big2.champsimtrace")
*** Reached end of trace: (7, "traces/canneal_big2.champsimtrace")
Heartbeat CPU 2 instructions: 220000001 cycles: 55003806 heartbeat IPC: 4 cumulative IPC: 4 (Simulation time: 02 hr 45 min 39 sec)
Heartbeat CPU 7 instructions: 220000001 cycles: 55003813 heartbeat IPC: 4 cumulative IPC: 4 (Simulation time: 02 hr 45 min 39 sec)
Simulation finished CPU 7 instructions: 100000000 cycles: 25000000 cumulative IPC: 4 (Simulation time: 02 hr 46 min 14 sec)
Simulation finished CPU 4 instructions: 100000000 cycles: 25000000 cumulative IPC: 4 (Simulation time: 02 hr 46 min 14 sec)
Simulation finished CPU 3 instructions: 100000000 cycles: 25000000 cumulative IPC: 4 (Simulation time: 02 hr 46 min 14 sec)
Simulation finished CPU 2 instructions: 100000000 cycles: 25000000 cumulative IPC: 4 (Simulation time: 02 hr 46 min 14 sec)
*** Reached end of trace: (4, "traces/canneal_big4.champsimtrace")
*** Reached end of trace: (3, "traces/canneal_big3.champsimtrace")
*** Reached end of trace: (2, "traces/canneal_big2.champsimtrace")
*** Reached end of trace: (7, "traces/canneal_big2.champsimtrace")
*** Reached end of trace: (0, "traces/canneal_big0.champsimtrace")
Heartbeat CPU 0 instructions: 140000034 cycles: 56484248 heartbeat IPC: 2.377 cumulative IPC: 2.348 (Simulation time: 02 hr 51 min 05 sec)
*** Reached end of trace: (5, "traces/canneal_big0.champsimtrace")
Heartbeat CPU 5 instructions: 140000039 cycles: 56796675 heartbeat IPC: 2.351 cumulative IPC: 2.326 (Simulation time: 02 hr 52 min 15 sec)
*** Reached end of trace: (4, "traces/canneal_big4.champsimtrace")
*** Reached end of trace: (3, "traces/canneal_big3.champsimtrace")
Heartbeat CPU 4 instructions: 230000001 cycles: 57503631 heartbeat IPC: 4 cumulative IPC: 4 (Simulation time: 02 hr 54 min 48 sec)
Heartbeat CPU 3 instructions: 230000001 cycles: 57503657 heartbeat IPC: 4 cumulative IPC: 4 (Simulation time: 02 hr 54 min 48 sec)
*** Reached end of trace: (2, "traces/canneal_big2.champsimtrace")
*** Reached end of trace: (7, "traces/canneal_big2.champsimtrace")
Heartbeat CPU 2 instructions: 230000001 cycles: 57503806 heartbeat IPC: 4 cumulative IPC: 4 (Simulation time: 02 hr 54 min 48 sec)
Heartbeat CPU 7 instructions: 230000001 cycles: 57503813 heartbeat IPC: 4 cumulative IPC: 4 (Simulation time: 02 hr 54 min 48 sec)
*** Reached end of trace: (0, "traces/canneal_big0.champsimtrace")
*** Reached end of trace: (4, "traces/canneal_big4.champsimtrace")
*** Reached end of trace: (3, "traces/canneal_big3.champsimtrace")
*** Reached end of trace: (2, "traces/canneal_big2.champsimtrace")
*** Reached end of trace: (7, "traces/canneal_big2.champsimtrace")
*** Reached end of trace: (5, "traces/canneal_big0.champsimtrace")
*** Reached end of trace: (4, "traces/canneal_big4.champsimtrace")
*** Reached end of trace: (3, "traces/canneal_big3.champsimtrace")
Heartbeat CPU 4 instructions: 240000001 cycles: 60003631 heartbeat IPC: 4 cumulative IPC: 4 (Simulation time: 03 hr 03 min 21 sec)
Heartbeat CPU 3 instructions: 240000001 cycles: 60003657 heartbeat IPC: 4 cumulative IPC: 4 (Simulation time: 03 hr 03 min 22 sec)
*** Reached end of trace: (2, "traces/canneal_big2.champsimtrace")
*** Reached end of trace: (7, "traces/canneal_big2.champsimtrace")
Heartbeat CPU 2 instructions: 240000001 cycles: 60003806 heartbeat IPC: 4 cumulative IPC: 4 (Simulation time: 03 hr 03 min 22 sec)
Heartbeat CPU 7 instructions: 240000001 cycles: 60003813 heartbeat IPC: 4 cumulative IPC: 4 (Simulation time: 03 hr 03 min 22 sec)
*** Reached end of trace: (0, "traces/canneal_big0.champsimtrace")
Heartbeat CPU 0 instructions: 150000037 cycles: 60676992 heartbeat IPC: 2.385 cumulative IPC: 2.353 (Simulation time: 03 hr 05 min 03 sec)
*** Reached end of trace: (5, "traces/canneal_big0.champsimtrace")
Heartbeat CPU 5 instructions: 150000040 cycles: 61051917 heartbeat IPC: 2.35 cumulative IPC: 2.329 (Simulation time: 03 hr 06 min 02 sec)
*** Reached end of trace: (4, "traces/canneal_big4.champsimtrace")
*** Reached end of trace: (3, "traces/canneal_big3.champsimtrace")
*** Reached end of trace: (2, "traces/canneal_big2.champsimtrace")
*** Reached end of trace: (7, "traces/canneal_big2.champsimtrace")
*** Reached end of trace: (4, "traces/canneal_big4.champsimtrace")
*** Reached end of trace: (3, "traces/canneal_big3.champsimtrace")
Heartbeat CPU 4 instructions: 250000001 cycles: 62503631 heartbeat IPC: 4 cumulative IPC: 4 (Simulation time: 03 hr 09 min 35 sec)
Heartbeat CPU 3 instructions: 250000001 cycles: 62503657 heartbeat IPC: 4 cumulative IPC: 4 (Simulation time: 03 hr 09 min 35 sec)
*** Reached end of trace: (2, "traces/canneal_big2.champsimtrace")
*** Reached end of trace: (7, "traces/canneal_big2.champsimtrace")
Heartbeat CPU 2 instructions: 250000001 cycles: 62503806 heartbeat IPC: 4 cumulative IPC: 4 (Simulation time: 03 hr 09 min 35 sec)
Heartbeat CPU 7 instructions: 250000001 cycles: 62503813 heartbeat IPC: 4 cumulative IPC: 4 (Simulation time: 03 hr 09 min 35 sec)
*** Reached end of trace: (0, "traces/canneal_big0.champsimtrace")
*** Reached end of trace: (5, "traces/canneal_big0.champsimtrace")
*** Reached end of trace: (4, "traces/canneal_big4.champsimtrace")
*** Reached end of trace: (3, "traces/canneal_big3.champsimtrace")
*** Reached end of trace: (2, "traces/canneal_big2.champsimtrace")
*** Reached end of trace: (7, "traces/canneal_big2.champsimtrace")
*** Reached end of trace: (1, "traces/canneal_big1.champsimtrace")
Heartbeat CPU 1 instructions: 60000010 cycles: 64029229 heartbeat IPC: 0.2941 cumulative IPC: 0.2887 (Simulation time: 03 hr 13 min 15 sec)
*** Reached end of trace: (0, "traces/canneal_big0.champsimtrace")
Heartbeat CPU 0 instructions: 160000040 cycles: 64873488 heartbeat IPC: 2.383 cumulative IPC: 2.357 (Simulation time: 03 hr 15 min 10 sec)
*** Reached end of trace: (4, "traces/canneal_big4.champsimtrace")
*** Reached end of trace: (3, "traces/canneal_big3.champsimtrace")
Heartbeat CPU 4 instructions: 260000001 cycles: 65003631 heartbeat IPC: 4 cumulative IPC: 4 (Simulation time: 03 hr 15 min 28 sec)
Heartbeat CPU 3 instructions: 260000001 cycles: 65003657 heartbeat IPC: 4 cumulative IPC: 4 (Simulation time: 03 hr 15 min 28 sec)
*** Reached end of trace: (2, "traces/canneal_big2.champsimtrace")
*** Reached end of trace: (7, "traces/canneal_big2.champsimtrace")
Heartbeat CPU 2 instructions: 260000001 cycles: 65003806 heartbeat IPC: 4 cumulative IPC: 4 (Simulation time: 03 hr 15 min 28 sec)
Heartbeat CPU 7 instructions: 260000001 cycles: 65003813 heartbeat IPC: 4 cumulative IPC: 4 (Simulation time: 03 hr 15 min 28 sec)
*** Reached end of trace: (6, "traces/canneal_big1.champsimtrace")
Heartbeat CPU 6 instructions: 60000010 cycles: 65058193 heartbeat IPC: 0.2867 cumulative IPC: 0.2867 (Simulation time: 03 hr 15 min 36 sec)
*** Reached end of trace: (5, "traces/canneal_big0.champsimtrace")
Heartbeat CPU 5 instructions: 160000043 cycles: 65296782 heartbeat IPC: 2.356 cumulative IPC: 2.332 (Simulation time: 03 hr 16 min 10 sec)
*** Reached end of trace: (4, "traces/canneal_big4.champsimtrace")
*** Reached end of trace: (3, "traces/canneal_big3.champsimtrace")
*** Reached end of trace: (2, "traces/canneal_big2.champsimtrace")
*** Reached end of trace: (7, "traces/canneal_big2.champsimtrace")
*** Reached end of trace: (0, "traces/canneal_big0.champsimtrace")
*** Reached end of trace: (5, "traces/canneal_big0.champsimtrace")
*** Reached end of trace: (4, "traces/canneal_big4.champsimtrace")
*** Reached end of trace: (3, "traces/canneal_big3.champsimtrace")
Heartbeat CPU 4 instructions: 270000001 cycles: 67503631 heartbeat IPC: 4 cumulative IPC: 4 (Simulation time: 03 hr 24 min 11 sec)
Heartbeat CPU 3 instructions: 270000001 cycles: 67503657 heartbeat IPC: 4 cumulative IPC: 4 (Simulation time: 03 hr 24 min 11 sec)
*** Reached end of trace: (2, "traces/canneal_big2.champsimtrace")
*** Reached end of trace: (7, "traces/canneal_big2.champsimtrace")
Heartbeat CPU 2 instructions: 270000001 cycles: 67503806 heartbeat IPC: 4 cumulative IPC: 4 (Simulation time: 03 hr 24 min 11 sec)
Heartbeat CPU 7 instructions: 270000001 cycles: 67503813 heartbeat IPC: 4 cumulative IPC: 4 (Simulation time: 03 hr 24 min 11 sec)
*** Reached end of trace: (4, "traces/canneal_big4.champsimtrace")
*** Reached end of trace: (3, "traces/canneal_big3.champsimtrace")
*** Reached end of trace: (2, "traces/canneal_big2.champsimtrace")
*** Reached end of trace: (7, "traces/canneal_big2.champsimtrace")
*** Reached end of trace: (0, "traces/canneal_big0.champsimtrace")
Heartbeat CPU 0 instructions: 170000041 cycles: 69065253 heartbeat IPC: 2.386 cumulative IPC: 2.36 (Simulation time: 03 hr 29 min 49 sec)
*** Reached end of trace: (5, "traces/canneal_big0.champsimtrace")
Heartbeat CPU 5 instructions: 170000046 cycles: 69544468 heartbeat IPC: 2.354 cumulative IPC: 2.335 (Simulation time: 03 hr 31 min 29 sec)
*** Reached end of trace: (4, "traces/canneal_big4.champsimtrace")
*** Reached end of trace: (3, "traces/canneal_big3.champsimtrace")
Heartbeat CPU 4 instructions: 280000001 cycles: 70003631 heartbeat IPC: 4 cumulative IPC: 4 (Simulation time: 03 hr 32 min 48 sec)
Heartbeat CPU 3 instructions: 280000001 cycles: 70003657 heartbeat IPC: 4 cumulative IPC: 4 (Simulation time: 03 hr 32 min 48 sec)
*** Reached end of trace: (2, "traces/canneal_big2.champsimtrace")
*** Reached end of trace: (7, "traces/canneal_big2.champsimtrace")
Heartbeat CPU 2 instructions: 280000001 cycles: 70003806 heartbeat IPC: 4 cumulative IPC: 4 (Simulation time: 03 hr 32 min 48 sec)
Heartbeat CPU 7 instructions: 280000001 cycles: 70003813 heartbeat IPC: 4 cumulative IPC: 4 (Simulation time: 03 hr 32 min 48 sec)
*** Reached end of trace: (0, "traces/canneal_big0.champsimtrace")
*** Reached end of trace: (4, "traces/canneal_big4.champsimtrace")
*** Reached end of trace: (3, "traces/canneal_big3.champsimtrace")
*** Reached end of trace: (2, "traces/canneal_big2.champsimtrace")
*** Reached end of trace: (7, "traces/canneal_big2.champsimtrace")
*** Reached end of trace: (5, "traces/canneal_big0.champsimtrace")
*** Reached end of trace: (4, "traces/canneal_big4.champsimtrace")
*** Reached end of trace: (3, "traces/canneal_big3.champsimtrace")
Heartbeat CPU 4 instructions: 290000001 cycles: 72503631 heartbeat IPC: 4 cumulative IPC: 4 (Simulation time: 03 hr 40 min 03 sec)
Heartbeat CPU 3 instructions: 290000001 cycles: 72503657 heartbeat IPC: 4 cumulative IPC: 4 (Simulation time: 03 hr 40 min 03 sec)
*** Reached end of trace: (2, "traces/canneal_big2.champsimtrace")
*** Reached end of trace: (7, "traces/canneal_big2.champsimtrace")
Heartbeat CPU 2 instructions: 290000001 cycles: 72503806 heartbeat IPC: 4 cumulative IPC: 4 (Simulation time: 03 hr 40 min 03 sec)
Heartbeat CPU 7 instructions: 290000001 cycles: 72503813 heartbeat IPC: 4 cumulative IPC: 4 (Simulation time: 03 hr 40 min 03 sec)
Simulation finished CPU 0 instructions: 100000000 cycles: 42400420 cumulative IPC: 2.358 (Simulation time: 03 hr 40 min 14 sec)
Simulation finished CPU 5 instructions: 100000000 cycles: 42888901 cumulative IPC: 2.332 (Simulation time: 03 hr 41 min 58 sec)
*** Reached end of trace: (0, "traces/canneal_big0.champsimtrace")
Heartbeat CPU 0 instructions: 180000041 cycles: 73233040 heartbeat IPC: 2.399 cumulative IPC: 2.364 (Simulation time: 03 hr 42 min 34 sec)
*** Reached end of trace: (4, "traces/canneal_big4.champsimtrace")
*** Reached end of trace: (3, "traces/canneal_big3.champsimtrace")
*** Reached end of trace: (2, "traces/canneal_big2.champsimtrace")
*** Reached end of trace: (7, "traces/canneal_big2.champsimtrace")
*** Reached end of trace: (5, "traces/canneal_big0.champsimtrace")
Heartbeat CPU 5 instructions: 180000049 cycles: 73787714 heartbeat IPC: 2.357 cumulative IPC: 2.337 (Simulation time: 03 hr 44 min 33 sec)
*** Reached end of trace: (4, "traces/canneal_big4.champsimtrace")
*** Reached end of trace: (3, "traces/canneal_big3.champsimtrace")
Heartbeat CPU 4 instructions: 300000001 cycles: 75003631 heartbeat IPC: 4 cumulative IPC: 4 (Simulation time: 03 hr 47 min 45 sec)
Heartbeat CPU 3 instructions: 300000001 cycles: 75003657 heartbeat IPC: 4 cumulative IPC: 4 (Simulation time: 03 hr 47 min 45 sec)
*** Reached end of trace: (2, "traces/canneal_big2.champsimtrace")
*** Reached end of trace: (7, "traces/canneal_big2.champsimtrace")
Heartbeat CPU 2 instructions: 300000001 cycles: 75003806 heartbeat IPC: 4 cumulative IPC: 4 (Simulation time: 03 hr 47 min 45 sec)
Heartbeat CPU 7 instructions: 300000001 cycles: 75003813 heartbeat IPC: 4 cumulative IPC: 4 (Simulation time: 03 hr 47 min 45 sec)
*** Reached end of trace: (0, "traces/canneal_big0.champsimtrace")
*** Reached end of trace: (5, "traces/canneal_big0.champsimtrace")
*** Reached end of trace: (4, "traces/canneal_big4.champsimtrace")
*** Reached end of trace: (3, "traces/canneal_big3.champsimtrace")
*** Reached end of trace: (2, "traces/canneal_big2.champsimtrace")
*** Reached end of trace: (7, "traces/canneal_big2.champsimtrace")
*** Reached end of trace: (0, "traces/canneal_big0.champsimtrace")
Heartbeat CPU 0 instructions: 190000044 cycles: 77374764 heartbeat IPC: 2.414 cumulative IPC: 2.368 (Simulation time: 03 hr 55 min 38 sec)
*** Reached end of trace: (4, "traces/canneal_big4.champsimtrace")
*** Reached end of trace: (3, "traces/canneal_big3.champsimtrace")
Heartbeat CPU 4 instructions: 310000001 cycles: 77503631 heartbeat IPC: 4 cumulative IPC: 4 (Simulation time: 03 hr 56 min 05 sec)
Heartbeat CPU 3 instructions: 310000001 cycles: 77503657 heartbeat IPC: 4 cumulative IPC: 4 (Simulation time: 03 hr 56 min 05 sec)
*** Reached end of trace: (2, "traces/canneal_big2.champsimtrace")
*** Reached end of trace: (7, "traces/canneal_big2.champsimtrace")
Heartbeat CPU 2 instructions: 310000001 cycles: 77503806 heartbeat IPC: 4 cumulative IPC: 4 (Simulation time: 03 hr 56 min 06 sec)
Heartbeat CPU 7 instructions: 310000001 cycles: 77503813 heartbeat IPC: 4 cumulative IPC: 4 (Simulation time: 03 hr 56 min 06 sec)
*** Reached end of trace: (5, "traces/canneal_big0.champsimtrace")
Heartbeat CPU 5 instructions: 190000052 cycles: 78019876 heartbeat IPC: 2.363 cumulative IPC: 2.339 (Simulation time: 03 hr 57 min 54 sec)
*** Reached end of trace: (4, "traces/canneal_big4.champsimtrace")
*** Reached end of trace: (3, "traces/canneal_big3.champsimtrace")
*** Reached end of trace: (2, "traces/canneal_big2.champsimtrace")
*** Reached end of trace: (7, "traces/canneal_big2.champsimtrace")
*** Reached end of trace: (0, "traces/canneal_big0.champsimtrace")
*** Reached end of trace: (4, "traces/canneal_big4.champsimtrace")
*** Reached end of trace: (3, "traces/canneal_big3.champsimtrace")
Heartbeat CPU 4 instructions: 320000001 cycles: 80003631 heartbeat IPC: 4 cumulative IPC: 4 (Simulation time: 04 hr 04 min 12 sec)
Heartbeat CPU 3 instructions: 320000001 cycles: 80003657 heartbeat IPC: 4 cumulative IPC: 4 (Simulation time: 04 hr 04 min 12 sec)
*** Reached end of trace: (2, "traces/canneal_big2.champsimtrace")
*** Reached end of trace: (7, "traces/canneal_big2.champsimtrace")
Heartbeat CPU 2 instructions: 320000001 cycles: 80003806 heartbeat IPC: 4 cumulative IPC: 4 (Simulation time: 04 hr 04 min 12 sec)
Heartbeat CPU 7 instructions: 320000001 cycles: 80003813 heartbeat IPC: 4 cumulative IPC: 4 (Simulation time: 04 hr 04 min 12 sec)
*** Reached end of trace: (5, "traces/canneal_big0.champsimtrace")
*** Reached end of trace: (1, "traces/canneal_big1.champsimtrace")
*** Reached end of trace: (4, "traces/canneal_big4.champsimtrace")
*** Reached end of trace: (3, "traces/canneal_big3.champsimtrace")
*** Reached end of trace: (2, "traces/canneal_big2.champsimtrace")
*** Reached end of trace: (7, "traces/canneal_big2.champsimtrace")
*** Reached end of trace: (0, "traces/canneal_big0.champsimtrace")
Heartbeat CPU 0 instructions: 200000045 cycles: 81491699 heartbeat IPC: 2.429 cumulative IPC: 2.373 (Simulation time: 04 hr 07 min 53 sec)
*** Reached end of trace: (6, "traces/canneal_big1.champsimtrace")
*** Reached end of trace: (5, "traces/canneal_big0.champsimtrace")
Heartbeat CPU 5 instructions: 200000055 cycles: 82232112 heartbeat IPC: 2.374 cumulative IPC: 2.342 (Simulation time: 04 hr 09 min 46 sec)
*** Reached end of trace: (4, "traces/canneal_big4.champsimtrace")
*** Reached end of trace: (3, "traces/canneal_big3.champsimtrace")
Heartbeat CPU 4 instructions: 330000001 cycles: 82503631 heartbeat IPC: 4 cumulative IPC: 4 (Simulation time: 04 hr 10 min 41 sec)
Heartbeat CPU 3 instructions: 330000001 cycles: 82503657 heartbeat IPC: 4 cumulative IPC: 4 (Simulation time: 04 hr 10 min 41 sec)
*** Reached end of trace: (2, "traces/canneal_big2.champsimtrace")
*** Reached end of trace: (7, "traces/canneal_big2.champsimtrace")
Heartbeat CPU 2 instructions: 330000001 cycles: 82503806 heartbeat IPC: 4 cumulative IPC: 4 (Simulation time: 04 hr 10 min 41 sec)
Heartbeat CPU 7 instructions: 330000001 cycles: 82503813 heartbeat IPC: 4 cumulative IPC: 4 (Simulation time: 04 hr 10 min 41 sec)
*** Reached end of trace: (0, "traces/canneal_big0.champsimtrace")
*** Reached end of trace: (4, "traces/canneal_big4.champsimtrace")
*** Reached end of trace: (3, "traces/canneal_big3.champsimtrace")
*** Reached end of trace: (2, "traces/canneal_big2.champsimtrace")
*** Reached end of trace: (7, "traces/canneal_big2.champsimtrace")
*** Reached end of trace: (5, "traces/canneal_big0.champsimtrace")
*** Reached end of trace: (4, "traces/canneal_big4.champsimtrace")
*** Reached end of trace: (3, "traces/canneal_big3.champsimtrace")
Heartbeat CPU 4 instructions: 340000001 cycles: 85003631 heartbeat IPC: 4 cumulative IPC: 4 (Simulation time: 04 hr 17 min 19 sec)
Heartbeat CPU 3 instructions: 340000001 cycles: 85003657 heartbeat IPC: 4 cumulative IPC: 4 (Simulation time: 04 hr 17 min 19 sec)
*** Reached end of trace: (2, "traces/canneal_big2.champsimtrace")
*** Reached end of trace: (7, "traces/canneal_big2.champsimtrace")
Heartbeat CPU 2 instructions: 340000001 cycles: 85003806 heartbeat IPC: 4 cumulative IPC: 4 (Simulation time: 04 hr 17 min 19 sec)
Heartbeat CPU 7 instructions: 340000001 cycles: 85003813 heartbeat IPC: 4 cumulative IPC: 4 (Simulation time: 04 hr 17 min 19 sec)
*** Reached end of trace: (0, "traces/canneal_big0.champsimtrace")
Heartbeat CPU 0 instructions: 210000048 cycles: 85620107 heartbeat IPC: 2.422 cumulative IPC: 2.377 (Simulation time: 04 hr 18 min 47 sec)
*** Reached end of trace: (4, "traces/canneal_big4.champsimtrace")
*** Reached end of trace: (3, "traces/canneal_big3.champsimtrace")
*** Reached end of trace: (2, "traces/canneal_big2.champsimtrace")
*** Reached end of trace: (7, "traces/canneal_big2.champsimtrace")
*** Reached end of trace: (5, "traces/canneal_big0.champsimtrace")
Heartbeat CPU 5 instructions: 210000058 cycles: 86423378 heartbeat IPC: 2.386 cumulative IPC: 2.345 (Simulation time: 04 hr 21 min 14 sec)
*** Reached end of trace: (4, "traces/canneal_big4.champsimtrace")
*** Reached end of trace: (3, "traces/canneal_big3.champsimtrace")
Heartbeat CPU 4 instructions: 350000001 cycles: 87503631 heartbeat IPC: 4 cumulative IPC: 4 (Simulation time: 04 hr 24 min 49 sec)
Heartbeat CPU 3 instructions: 350000001 cycles: 87503657 heartbeat IPC: 4 cumulative IPC: 4 (Simulation time: 04 hr 24 min 49 sec)
*** Reached end of trace: (2, "traces/canneal_big2.champsimtrace")
*** Reached end of trace: (7, "traces/canneal_big2.champsimtrace")
Heartbeat CPU 2 instructions: 350000001 cycles: 87503806 heartbeat IPC: 4 cumulative IPC: 4 (Simulation time: 04 hr 24 min 49 sec)
Heartbeat CPU 7 instructions: 350000001 cycles: 87503813 heartbeat IPC: 4 cumulative IPC: 4 (Simulation time: 04 hr 24 min 49 sec)
*** Reached end of trace: (0, "traces/canneal_big0.champsimtrace")
*** Reached end of trace: (5, "traces/canneal_big0.champsimtrace")
*** Reached end of trace: (4, "traces/canneal_big4.champsimtrace")
*** Reached end of trace: (3, "traces/canneal_big3.champsimtrace")
*** Reached end of trace: (2, "traces/canneal_big2.champsimtrace")
*** Reached end of trace: (7, "traces/canneal_big2.champsimtrace")
*** Reached end of trace: (0, "traces/canneal_big0.champsimtrace")
Heartbeat CPU 0 instructions: 220000051 cycles: 89741079 heartbeat IPC: 2.427 cumulative IPC: 2.38 (Simulation time: 04 hr 31 min 51 sec)
*** Reached end of trace: (4, "traces/canneal_big4.champsimtrace")
*** Reached end of trace: (3, "traces/canneal_big3.champsimtrace")
Heartbeat CPU 4 instructions: 360000001 cycles: 90003631 heartbeat IPC: 4 cumulative IPC: 4 (Simulation time: 04 hr 32 min 29 sec)
Heartbeat CPU 3 instructions: 360000001 cycles: 90003657 heartbeat IPC: 4 cumulative IPC: 4 (Simulation time: 04 hr 32 min 29 sec)
*** Reached end of trace: (2, "traces/canneal_big2.champsimtrace")
*** Reached end of trace: (7, "traces/canneal_big2.champsimtrace")
Heartbeat CPU 2 instructions: 360000001 cycles: 90003806 heartbeat IPC: 4 cumulative IPC: 4 (Simulation time: 04 hr 32 min 29 sec)
Heartbeat CPU 7 instructions: 360000001 cycles: 90003813 heartbeat IPC: 4 cumulative IPC: 4 (Simulation time: 04 hr 32 min 29 sec)
*** Reached end of trace: (5, "traces/canneal_big0.champsimtrace")
Heartbeat CPU 5 instructions: 220000061 cycles: 90615495 heartbeat IPC: 2.385 cumulative IPC: 2.348 (Simulation time: 04 hr 34 min 03 sec)
*** Reached end of trace: (4, "traces/canneal_big4.champsimtrace")
*** Reached end of trace: (3, "traces/canneal_big3.champsimtrace")
*** Reached end of trace: (2, "traces/canneal_big2.champsimtrace")
*** Reached end of trace: (7, "traces/canneal_big2.champsimtrace")
*** Reached end of trace: (0, "traces/canneal_big0.champsimtrace")
*** Reached end of trace: (4, "traces/canneal_big4.champsimtrace")
*** Reached end of trace: (3, "traces/canneal_big3.champsimtrace")
Heartbeat CPU 4 instructions: 370000001 cycles: 92503631 heartbeat IPC: 4 cumulative IPC: 4 (Simulation time: 04 hr 40 min 09 sec)
Heartbeat CPU 3 instructions: 370000001 cycles: 92503657 heartbeat IPC: 4 cumulative IPC: 4 (Simulation time: 04 hr 40 min 09 sec)
*** Reached end of trace: (2, "traces/canneal_big2.champsimtrace")
*** Reached end of trace: (7, "traces/canneal_big2.champsimtrace")
Heartbeat CPU 2 instructions: 370000001 cycles: 92503806 heartbeat IPC: 4 cumulative IPC: 4 (Simulation time: 04 hr 40 min 09 sec)
Heartbeat CPU 7 instructions: 370000001 cycles: 92503813 heartbeat IPC: 4 cumulative IPC: 4 (Simulation time: 04 hr 40 min 09 sec)
*** Reached end of trace: (5, "traces/canneal_big0.champsimtrace")
*** Reached end of trace: (4, "traces/canneal_big4.champsimtrace")
*** Reached end of trace: (3, "traces/canneal_big3.champsimtrace")
*** Reached end of trace: (2, "traces/canneal_big2.champsimtrace")
*** Reached end of trace: (7, "traces/canneal_big2.champsimtrace")
*** Reached end of trace: (0, "traces/canneal_big0.champsimtrace")
Heartbeat CPU 0 instructions: 230000054 cycles: 93855881 heartbeat IPC: 2.43 cumulative IPC: 2.383 (Simulation time: 04 hr 45 min 04 sec)
*** Reached end of trace: (5, "traces/canneal_big0.champsimtrace")
Heartbeat CPU 5 instructions: 230000064 cycles: 94802445 heartbeat IPC: 2.388 cumulative IPC: 2.351 (Simulation time: 04 hr 48 min 32 sec)
*** Reached end of trace: (4, "traces/canneal_big4.champsimtrace")
*** Reached end of trace: (3, "traces/canneal_big3.champsimtrace")
Heartbeat CPU 4 instructions: 380000001 cycles: 95003631 heartbeat IPC: 4 cumulative IPC: 4 (Simulation time: 04 hr 49 min 12 sec)
Heartbeat CPU 3 instructions: 380000001 cycles: 95003657 heartbeat IPC: 4 cumulative IPC: 4 (Simulation time: 04 hr 49 min 12 sec)
*** Reached end of trace: (2, "traces/canneal_big2.champsimtrace")
*** Reached end of trace: (7, "traces/canneal_big2.champsimtrace")
Heartbeat CPU 2 instructions: 380000001 cycles: 95003806 heartbeat IPC: 4 cumulative IPC: 4 (Simulation time: 04 hr 49 min 12 sec)
Heartbeat CPU 7 instructions: 380000001 cycles: 95003813 heartbeat IPC: 4 cumulative IPC: 4 (Simulation time: 04 hr 49 min 12 sec)
*** Reached end of trace: (0, "traces/canneal_big0.champsimtrace")
*** Reached end of trace: (4, "traces/canneal_big4.champsimtrace")
*** Reached end of trace: (3, "traces/canneal_big3.champsimtrace")
*** Reached end of trace: (2, "traces/canneal_big2.champsimtrace")
*** Reached end of trace: (7, "traces/canneal_big2.champsimtrace")
*** Reached end of trace: (1, "traces/canneal_big1.champsimtrace")
Heartbeat CPU 1 instructions: 70000012 cycles: 96577467 heartbeat IPC: 0.3072 cumulative IPC: 0.2978 (Simulation time: 04 hr 53 min 33 sec)
*** Reached end of trace: (5, "traces/canneal_big0.champsimtrace")
*** Reached end of trace: (4, "traces/canneal_big4.champsimtrace")
*** Reached end of trace: (3, "traces/canneal_big3.champsimtrace")
Heartbeat CPU 4 instructions: 390000001 cycles: 97503631 heartbeat IPC: 4 cumulative IPC: 4 (Simulation time: 04 hr 56 min 13 sec)
Heartbeat CPU 3 instructions: 390000001 cycles: 97503657 heartbeat IPC: 4 cumulative IPC: 4 (Simulation time: 04 hr 56 min 13 sec)
*** Reached end of trace: (2, "traces/canneal_big2.champsimtrace")
*** Reached end of trace: (7, "traces/canneal_big2.champsimtrace")
Heartbeat CPU 2 instructions: 390000001 cycles: 97503806 heartbeat IPC: 4 cumulative IPC: 4 (Simulation time: 04 hr 56 min 13 sec)
Heartbeat CPU 7 instructions: 390000001 cycles: 97503813 heartbeat IPC: 4 cumulative IPC: 4 (Simulation time: 04 hr 56 min 13 sec)
*** Reached end of trace: (6, "traces/canneal_big1.champsimtrace")
Heartbeat CPU 6 instructions: 70000012 cycles: 97605144 heartbeat IPC: 0.3072 cumulative IPC: 0.2966 (Simulation time: 04 hr 56 min 30 sec)
*** Reached end of trace: (0, "traces/canneal_big0.champsimtrace")
Heartbeat CPU 0 instructions: 240000057 cycles: 97963045 heartbeat IPC: 2.435 cumulative IPC: 2.386 (Simulation time: 04 hr 57 min 29 sec)
*** Reached end of trace: (4, "traces/canneal_big4.champsimtrace")
*** Reached end of trace: (3, "traces/canneal_big3.champsimtrace")
*** Reached end of trace: (2, "traces/canneal_big2.champsimtrace")
*** Reached end of trace: (7, "traces/canneal_big2.champsimtrace")
*** Reached end of trace: (5, "traces/canneal_big0.champsimtrace")
Heartbeat CPU 5 instructions: 240000067 cycles: 98989796 heartbeat IPC: 2.388 cumulative IPC: 2.353 (Simulation time: 05 hr 00 min 03 sec)
*** Reached end of trace: (4, "traces/canneal_big4.champsimtrace")
*** Reached end of trace: (3, "traces/canneal_big3.champsimtrace")
Heartbeat CPU 4 instructions: 400000001 cycles: 100003631 heartbeat IPC: 4 cumulative IPC: 4 (Simulation time: 05 hr 02 min 33 sec)
Heartbeat CPU 3 instructions: 400000001 cycles: 100003657 heartbeat IPC: 4 cumulative IPC: 4 (Simulation time: 05 hr 02 min 33 sec)
*** Reached end of trace: (2, "traces/canneal_big2.champsimtrace")
*** Reached end of trace: (7, "traces/canneal_big2.champsimtrace")
Heartbeat CPU 2 instructions: 400000001 cycles: 100003806 heartbeat IPC: 4 cumulative IPC: 4 (Simulation time: 05 hr 02 min 33 sec)
Heartbeat CPU 7 instructions: 400000001 cycles: 100003813 heartbeat IPC: 4 cumulative IPC: 4 (Simulation time: 05 hr 02 min 33 sec)
*** Reached end of trace: (0, "traces/canneal_big0.champsimtrace")
*** Reached end of trace: (5, "traces/canneal_big0.champsimtrace")
*** Reached end of trace: (4, "traces/canneal_big4.champsimtrace")
*** Reached end of trace: (3, "traces/canneal_big3.champsimtrace")
*** Reached end of trace: (2, "traces/canneal_big2.champsimtrace")
*** Reached end of trace: (7, "traces/canneal_big2.champsimtrace")
*** Reached end of trace: (0, "traces/canneal_big0.champsimtrace")
Heartbeat CPU 0 instructions: 250000060 cycles: 102081345 heartbeat IPC: 2.428 cumulative IPC: 2.389 (Simulation time: 05 hr 09 min 05 sec)
*** Reached end of trace: (4, "traces/canneal_big4.champsimtrace")
*** Reached end of trace: (3, "traces/canneal_big3.champsimtrace")
Heartbeat CPU 4 instructions: 410000001 cycles: 102503631 heartbeat IPC: 4 cumulative IPC: 4 (Simulation time: 05 hr 10 min 32 sec)
Heartbeat CPU 3 instructions: 410000001 cycles: 102503657 heartbeat IPC: 4 cumulative IPC: 4 (Simulation time: 05 hr 10 min 32 sec)
*** Reached end of trace: (2, "traces/canneal_big2.champsimtrace")
*** Reached end of trace: (7, "traces/canneal_big2.champsimtrace")
Heartbeat CPU 2 instructions: 410000001 cycles: 102503806 heartbeat IPC: 4 cumulative IPC: 4 (Simulation time: 05 hr 10 min 32 sec)
Heartbeat CPU 7 instructions: 410000001 cycles: 102503813 heartbeat IPC: 4 cumulative IPC: 4 (Simulation time: 05 hr 10 min 32 sec)
*** Reached end of trace: (5, "traces/canneal_big0.champsimtrace")
Heartbeat CPU 5 instructions: 250000070 cycles: 103179713 heartbeat IPC: 2.387 cumulative IPC: 2.355 (Simulation time: 05 hr 12 min 28 sec)
*** Reached end of trace: (4, "traces/canneal_big4.champsimtrace")
*** Reached end of trace: (3, "traces/canneal_big3.champsimtrace")
*** Reached end of trace: (2, "traces/canneal_big2.champsimtrace")
*** Reached end of trace: (7, "traces/canneal_big2.champsimtrace")
*** Reached end of trace: (0, "traces/canneal_big0.champsimtrace")
*** Reached end of trace: (4, "traces/canneal_big4.champsimtrace")
*** Reached end of trace: (3, "traces/canneal_big3.champsimtrace")
Heartbeat CPU 4 instructions: 420000001 cycles: 105003631 heartbeat IPC: 4 cumulative IPC: 4 (Simulation time: 05 hr 17 min 48 sec)
Heartbeat CPU 3 instructions: 420000001 cycles: 105003657 heartbeat IPC: 4 cumulative IPC: 4 (Simulation time: 05 hr 17 min 48 sec)
*** Reached end of trace: (2, "traces/canneal_big2.champsimtrace")
*** Reached end of trace: (7, "traces/canneal_big2.champsimtrace")
Heartbeat CPU 2 instructions: 420000001 cycles: 105003806 heartbeat IPC: 4 cumulative IPC: 4 (Simulation time: 05 hr 17 min 48 sec)
Heartbeat CPU 7 instructions: 420000001 cycles: 105003813 heartbeat IPC: 4 cumulative IPC: 4 (Simulation time: 05 hr 17 min 48 sec)
*** Reached end of trace: (5, "traces/canneal_big0.champsimtrace")
*** Reached end of trace: (0, "traces/canneal_big0.champsimtrace")
Heartbeat CPU 0 instructions: 260000063 cycles: 106184284 heartbeat IPC: 2.437 cumulative IPC: 2.391 (Simulation time: 05 hr 21 min 36 sec)
*** Reached end of trace: (4, "traces/canneal_big4.champsimtrace")
*** Reached end of trace: (3, "traces/canneal_big3.champsimtrace")
*** Reached end of trace: (2, "traces/canneal_big2.champsimtrace")
*** Reached end of trace: (7, "traces/canneal_big2.champsimtrace")
*** Reached end of trace: (5, "traces/canneal_big0.champsimtrace")
Heartbeat CPU 5 instructions: 260000073 cycles: 107370607 heartbeat IPC: 2.386 cumulative IPC: 2.357 (Simulation time: 05 hr 24 min 40 sec)
*** Reached end of trace: (4, "traces/canneal_big4.champsimtrace")
*** Reached end of trace: (3, "traces/canneal_big3.champsimtrace")
Heartbeat CPU 4 instructions: 430000001 cycles: 107503631 heartbeat IPC: 4 cumulative IPC: 4 (Simulation time: 05 hr 25 min 00 sec)
Heartbeat CPU 3 instructions: 430000001 cycles: 107503657 heartbeat IPC: 4 cumulative IPC: 4 (Simulation time: 05 hr 25 min 00 sec)
*** Reached end of trace: (2, "traces/canneal_big2.champsimtrace")
*** Reached end of trace: (7, "traces/canneal_big2.champsimtrace")
Heartbeat CPU 2 instructions: 430000001 cycles: 107503806 heartbeat IPC: 4 cumulative IPC: 4 (Simulation time: 05 hr 25 min 00 sec)
Heartbeat CPU 7 instructions: 430000001 cycles: 107503813 heartbeat IPC: 4 cumulative IPC: 4 (Simulation time: 05 hr 25 min 00 sec)
*** Reached end of trace: (0, "traces/canneal_big0.champsimtrace")
*** Reached end of trace: (4, "traces/canneal_big4.champsimtrace")
*** Reached end of trace: (3, "traces/canneal_big3.champsimtrace")
*** Reached end of trace: (2, "traces/canneal_big2.champsimtrace")
*** Reached end of trace: (7, "traces/canneal_big2.champsimtrace")
*** Reached end of trace: (5, "traces/canneal_big0.champsimtrace")
*** Reached end of trace: (4, "traces/canneal_big4.champsimtrace")
*** Reached end of trace: (3, "traces/canneal_big3.champsimtrace")
Heartbeat CPU 4 instructions: 440000001 cycles: 110003631 heartbeat IPC: 4 cumulative IPC: 4 (Simulation time: 05 hr 31 min 11 sec)
Heartbeat CPU 3 instructions: 440000001 cycles: 110003657 heartbeat IPC: 4 cumulative IPC: 4 (Simulation time: 05 hr 31 min 11 sec)
*** Reached end of trace: (2, "traces/canneal_big2.champsimtrace")
*** Reached end of trace: (7, "traces/canneal_big2.champsimtrace")
Heartbeat CPU 2 instructions: 440000001 cycles: 110003806 heartbeat IPC: 4 cumulative IPC: 4 (Simulation time: 05 hr 31 min 11 sec)
Heartbeat CPU 7 instructions: 440000001 cycles: 110003813 heartbeat IPC: 4 cumulative IPC: 4 (Simulation time: 05 hr 31 min 11 sec)
*** Reached end of trace: (0, "traces/canneal_big0.champsimtrace")
Heartbeat CPU 0 instructions: 270000066 cycles: 110283336 heartbeat IPC: 2.44 cumulative IPC: 2.394 (Simulation time: 05 hr 32 min 13 sec)
*** Reached end of trace: (4, "traces/canneal_big4.champsimtrace")
*** Reached end of trace: (3, "traces/canneal_big3.champsimtrace")
*** Reached end of trace: (2, "traces/canneal_big2.champsimtrace")
*** Reached end of trace: (7, "traces/canneal_big2.champsimtrace")
*** Reached end of trace: (5, "traces/canneal_big0.champsimtrace")
Heartbeat CPU 5 instructions: 270000076 cycles: 111561079 heartbeat IPC: 2.386 cumulative IPC: 2.358 (Simulation time: 05 hr 36 min 48 sec)
*** Reached end of trace: (0, "traces/canneal_big0.champsimtrace")
*** Reached end of trace: (4, "traces/canneal_big4.champsimtrace")
*** Reached end of trace: (3, "traces/canneal_big3.champsimtrace")
Heartbeat CPU 4 instructions: 450000001 cycles: 112503631 heartbeat IPC: 4 cumulative IPC: 4 (Simulation time: 05 hr 40 min 14 sec)
Heartbeat CPU 3 instructions: 450000001 cycles: 112503657 heartbeat IPC: 4 cumulative IPC: 4 (Simulation time: 05 hr 40 min 14 sec)
*** Reached end of trace: (2, "traces/canneal_big2.champsimtrace")
*** Reached end of trace: (7, "traces/canneal_big2.champsimtrace")
Heartbeat CPU 2 instructions: 450000001 cycles: 112503806 heartbeat IPC: 4 cumulative IPC: 4 (Simulation time: 05 hr 40 min 14 sec)
Heartbeat CPU 7 instructions: 450000001 cycles: 112503813 heartbeat IPC: 4 cumulative IPC: 4 (Simulation time: 05 hr 40 min 14 sec)
*** Reached end of trace: (1, "traces/canneal_big1.champsimtrace")
*** Reached end of trace: (5, "traces/canneal_big0.champsimtrace")
*** Reached end of trace: (6, "traces/canneal_big1.champsimtrace")
*** Reached end of trace: (4, "traces/canneal_big4.champsimtrace")
*** Reached end of trace: (3, "traces/canneal_big3.champsimtrace")
*** Reached end of trace: (2, "traces/canneal_big2.champsimtrace")
*** Reached end of trace: (7, "traces/canneal_big2.champsimtrace")
*** Reached end of trace: (0, "traces/canneal_big0.champsimtrace")
Heartbeat CPU 0 instructions: 280000066 cycles: 114361167 heartbeat IPC: 2.452 cumulative IPC: 2.397 (Simulation time: 05 hr 46 min 53 sec)
*** Reached end of trace: (4, "traces/canneal_big4.champsimtrace")
*** Reached end of trace: (3, "traces/canneal_big3.champsimtrace")
Heartbeat CPU 4 instructions: 460000001 cycles: 115003631 heartbeat IPC: 4 cumulative IPC: 4 (Simulation time: 05 hr 49 min 17 sec)
Heartbeat CPU 3 instructions: 460000001 cycles: 115003657 heartbeat IPC: 4 cumulative IPC: 4 (Simulation time: 05 hr 49 min 17 sec)
*** Reached end of trace: (2, "traces/canneal_big2.champsimtrace")
*** Reached end of trace: (7, "traces/canneal_big2.champsimtrace")
Heartbeat CPU 2 instructions: 460000001 cycles: 115003806 heartbeat IPC: 4 cumulative IPC: 4 (Simulation time: 05 hr 49 min 17 sec)
Heartbeat CPU 7 instructions: 460000001 cycles: 115003813 heartbeat IPC: 4 cumulative IPC: 4 (Simulation time: 05 hr 49 min 17 sec)
*** Reached end of trace: (5, "traces/canneal_big0.champsimtrace")
Heartbeat CPU 5 instructions: 280000079 cycles: 115745980 heartbeat IPC: 2.39 cumulative IPC: 2.36 (Simulation time: 05 hr 51 min 51 sec)
*** Reached end of trace: (4, "traces/canneal_big4.champsimtrace")
*** Reached end of trace: (3, "traces/canneal_big3.champsimtrace")
*** Reached end of trace: (2, "traces/canneal_big2.champsimtrace")
*** Reached end of trace: (7, "traces/canneal_big2.champsimtrace")
*** Reached end of trace: (0, "traces/canneal_big0.champsimtrace")
*** Reached end of trace: (4, "traces/canneal_big4.champsimtrace")
*** Reached end of trace: (3, "traces/canneal_big3.champsimtrace")
Heartbeat CPU 4 instructions: 470000001 cycles: 117503631 heartbeat IPC: 4 cumulative IPC: 4 (Simulation time: 05 hr 57 min 42 sec)
Heartbeat CPU 3 instructions: 470000001 cycles: 117503657 heartbeat IPC: 4 cumulative IPC: 4 (Simulation time: 05 hr 57 min 42 sec)
*** Reached end of trace: (2, "traces/canneal_big2.champsimtrace")
*** Reached end of trace: (7, "traces/canneal_big2.champsimtrace")
Heartbeat CPU 2 instructions: 470000001 cycles: 117503806 heartbeat IPC: 4 cumulative IPC: 4 (Simulation time: 05 hr 57 min 42 sec)
Heartbeat CPU 7 instructions: 470000001 cycles: 117503813 heartbeat IPC: 4 cumulative IPC: 4 (Simulation time: 05 hr 57 min 42 sec)
*** Reached end of trace: (5, "traces/canneal_big0.champsimtrace")
*** Reached end of trace: (0, "traces/canneal_big0.champsimtrace")
Heartbeat CPU 0 instructions: 290000069 cycles: 118452872 heartbeat IPC: 2.444 cumulative IPC: 2.399 (Simulation time: 05 hr 59 min 57 sec)
*** Reached end of trace: (4, "traces/canneal_big4.champsimtrace")
*** Reached end of trace: (3, "traces/canneal_big3.champsimtrace")
*** Reached end of trace: (2, "traces/canneal_big2.champsimtrace")
*** Reached end of trace: (7, "traces/canneal_big2.champsimtrace")
*** Reached end of trace: (5, "traces/canneal_big0.champsimtrace")
Heartbeat CPU 5 instructions: 290000082 cycles: 119930777 heartbeat IPC: 2.39 cumulative IPC: 2.361 (Simulation time: 06 hr 03 min 22 sec)
*** Reached end of trace: (4, "traces/canneal_big4.champsimtrace")
*** Reached end of trace: (3, "traces/canneal_big3.champsimtrace")
Heartbeat CPU 4 instructions: 480000001 cycles: 120003631 heartbeat IPC: 4 cumulative IPC: 4 (Simulation time: 06 hr 03 min 32 sec)
Heartbeat CPU 3 instructions: 480000001 cycles: 120003657 heartbeat IPC: 4 cumulative IPC: 4 (Simulation time: 06 hr 03 min 32 sec)
*** Reached end of trace: (2, "traces/canneal_big2.champsimtrace")
*** Reached end of trace: (7, "traces/canneal_big2.champsimtrace")
Heartbeat CPU 2 instructions: 480000001 cycles: 120003806 heartbeat IPC: 4 cumulative IPC: 4 (Simulation time: 06 hr 03 min 32 sec)
Heartbeat CPU 7 instructions: 480000001 cycles: 120003813 heartbeat IPC: 4 cumulative IPC: 4 (Simulation time: 06 hr 03 min 32 sec)
*** Reached end of trace: (0, "traces/canneal_big0.champsimtrace")
*** Reached end of trace: (4, "traces/canneal_big4.champsimtrace")
*** Reached end of trace: (3, "traces/canneal_big3.champsimtrace")
*** Reached end of trace: (2, "traces/canneal_big2.champsimtrace")
*** Reached end of trace: (7, "traces/canneal_big2.champsimtrace")
*** Reached end of trace: (5, "traces/canneal_big0.champsimtrace")
*** Reached end of trace: (4, "traces/canneal_big4.champsimtrace")
*** Reached end of trace: (3, "traces/canneal_big3.champsimtrace")
Heartbeat CPU 4 instructions: 490000001 cycles: 122503631 heartbeat IPC: 4 cumulative IPC: 4 (Simulation time: 06 hr 11 min 46 sec)
Heartbeat CPU 3 instructions: 490000001 cycles: 122503657 heartbeat IPC: 4 cumulative IPC: 4 (Simulation time: 06 hr 11 min 46 sec)
*** Reached end of trace: (2, "traces/canneal_big2.champsimtrace")
*** Reached end of trace: (7, "traces/canneal_big2.champsimtrace")
Heartbeat CPU 2 instructions: 490000001 cycles: 122503806 heartbeat IPC: 4 cumulative IPC: 4 (Simulation time: 06 hr 11 min 46 sec)
Heartbeat CPU 7 instructions: 490000001 cycles: 122503813 heartbeat IPC: 4 cumulative IPC: 4 (Simulation time: 06 hr 11 min 46 sec)
*** Reached end of trace: (0, "traces/canneal_big0.champsimtrace")
Heartbeat CPU 0 instructions: 300000070 cycles: 122535546 heartbeat IPC: 2.449 cumulative IPC: 2.401 (Simulation time: 06 hr 11 min 52 sec)
*** Reached end of trace: (4, "traces/canneal_big4.champsimtrace")
*** Reached end of trace: (3, "traces/canneal_big3.champsimtrace")
*** Reached end of trace: (2, "traces/canneal_big2.champsimtrace")
*** Reached end of trace: (7, "traces/canneal_big2.champsimtrace")
*** Reached end of trace: (5, "traces/canneal_big0.champsimtrace")
Heartbeat CPU 5 instructions: 300000085 cycles: 124096197 heartbeat IPC: 2.401 cumulative IPC: 2.363 (Simulation time: 06 hr 17 min 39 sec)
*** Reached end of trace: (0, "traces/canneal_big0.champsimtrace")
*** Reached end of trace: (4, "traces/canneal_big4.champsimtrace")
*** Reached end of trace: (3, "traces/canneal_big3.champsimtrace")
Heartbeat CPU 4 instructions: 500000001 cycles: 125003631 heartbeat IPC: 4 cumulative IPC: 4 (Simulation time: 06 hr 20 min 52 sec)
Heartbeat CPU 3 instructions: 500000001 cycles: 125003657 heartbeat IPC: 4 cumulative IPC: 4 (Simulation time: 06 hr 20 min 52 sec)
*** Reached end of trace: (2, "traces/canneal_big2.champsimtrace")
*** Reached end of trace: (7, "traces/canneal_big2.champsimtrace")
Heartbeat CPU 2 instructions: 500000001 cycles: 125003806 heartbeat IPC: 4 cumulative IPC: 4 (Simulation time: 06 hr 20 min 52 sec)
Heartbeat CPU 7 instructions: 500000001 cycles: 125003813 heartbeat IPC: 4 cumulative IPC: 4 (Simulation time: 06 hr 20 min 52 sec)
*** Reached end of trace: (5, "traces/canneal_big0.champsimtrace")
*** Reached end of trace: (4, "traces/canneal_big4.champsimtrace")
*** Reached end of trace: (3, "traces/canneal_big3.champsimtrace")
*** Reached end of trace: (2, "traces/canneal_big2.champsimtrace")
*** Reached end of trace: (7, "traces/canneal_big2.champsimtrace")
*** Reached end of trace: (0, "traces/canneal_big0.champsimtrace")
Heartbeat CPU 0 instructions: 310000070 cycles: 126605119 heartbeat IPC: 2.457 cumulative IPC: 2.404 (Simulation time: 06 hr 26 min 34 sec)
*** Reached end of trace: (4, "traces/canneal_big4.champsimtrace")
*** Reached end of trace: (3, "traces/canneal_big3.champsimtrace")
Heartbeat CPU 4 instructions: 510000001 cycles: 127503631 heartbeat IPC: 4 cumulative IPC: 4 (Simulation time: 06 hr 29 min 08 sec)
Heartbeat CPU 3 instructions: 510000001 cycles: 127503657 heartbeat IPC: 4 cumulative IPC: 4 (Simulation time: 06 hr 29 min 08 sec)
*** Reached end of trace: (2, "traces/canneal_big2.champsimtrace")
*** Reached end of trace: (7, "traces/canneal_big2.champsimtrace")
Heartbeat CPU 2 instructions: 510000001 cycles: 127503806 heartbeat IPC: 4 cumulative IPC: 4 (Simulation time: 06 hr 29 min 08 sec)
Heartbeat CPU 7 instructions: 510000001 cycles: 127503813 heartbeat IPC: 4 cumulative IPC: 4 (Simulation time: 06 hr 29 min 08 sec)
*** Reached end of trace: (5, "traces/canneal_big0.champsimtrace")
Heartbeat CPU 5 instructions: 310000088 cycles: 128246243 heartbeat IPC: 2.41 cumulative IPC: 2.365 (Simulation time: 06 hr 30 min 55 sec)
*** Reached end of trace: (1, "traces/canneal_big1.champsimtrace")
Heartbeat CPU 1 instructions: 80000014 cycles: 128582928 heartbeat IPC: 0.3124 cumulative IPC: 0.3026 (Simulation time: 06 hr 31 min 44 sec)
*** Reached end of trace: (0, "traces/canneal_big0.champsimtrace")
*** Reached end of trace: (4, "traces/canneal_big4.champsimtrace")
*** Reached end of trace: (3, "traces/canneal_big3.champsimtrace")
*** Reached end of trace: (2, "traces/canneal_big2.champsimtrace")
*** Reached end of trace: (7, "traces/canneal_big2.champsimtrace")
*** Reached end of trace: (6, "traces/canneal_big1.champsimtrace")
Heartbeat CPU 6 instructions: 80000014 cycles: 129713085 heartbeat IPC: 0.3114 cumulative IPC: 0.3014 (Simulation time: 06 hr 34 min 27 sec)
*** Reached end of trace: (4, "traces/canneal_big4.champsimtrace")
*** Reached end of trace: (3, "traces/canneal_big3.champsimtrace")
Heartbeat CPU 4 instructions: 520000001 cycles: 130003631 heartbeat IPC: 4 cumulative IPC: 4 (Simulation time: 06 hr 35 min 16 sec)
Heartbeat CPU 3 instructions: 520000001 cycles: 130003657 heartbeat IPC: 4 cumulative IPC: 4 (Simulation time: 06 hr 35 min 16 sec)
*** Reached end of trace: (2, "traces/canneal_big2.champsimtrace")
*** Reached end of trace: (7, "traces/canneal_big2.champsimtrace")
Heartbeat CPU 2 instructions: 520000001 cycles: 130003806 heartbeat IPC: 4 cumulative IPC: 4 (Simulation time: 06 hr 35 min 16 sec)
Heartbeat CPU 7 instructions: 520000001 cycles: 130003813 heartbeat IPC: 4 cumulative IPC: 4 (Simulation time: 06 hr 35 min 16 sec)
*** Reached end of trace: (5, "traces/canneal_big0.champsimtrace")
*** Reached end of trace: (0, "traces/canneal_big0.champsimtrace")
Heartbeat CPU 0 instructions: 320000073 cycles: 130683440 heartbeat IPC: 2.452 cumulative IPC: 2.405 (Simulation time: 06 hr 37 min 50 sec)
[...]
cpu5->cpu5_DTLB PREFETCH REQUESTED:          0 ISSUED:          0 USEFUL:          0 USELESS:          0
cpu5->cpu5_DTLB AVERAGE MISS LATENCY: 4.001 cycles
cpu5_DTLB COHERENCE INVALIDATIONS:          0
cpu5_DTLB COHERENCE WRITE-HIT OTHER-SHARER EVENTS:          0
cpu4_STLB COHERENCE INVALIDATIONS:          0
cpu4_STLB COHERENCE WRITE-HIT OTHER-SHARER EVENTS:          0
cpu4_L2C COHERENCE INVALIDATIONS:          0
cpu4_L2C COHERENCE WRITE-HIT OTHER-SHARER EVENTS:          0
cpu4->cpu4_L1I TOTAL        ACCESS:  174899255 HIT:  174899255 MISS:          0 MSHR_MERGE:          0
cpu4->cpu4_L1I LOAD         ACCESS:  174899255 HIT:  174899255 MISS:          0 MSHR_MERGE:          0
cpu4->cpu4_L1I RFO          ACCESS:          0 HIT:          0 MISS:          0 MSHR_MERGE:          0
cpu4->cpu4_L1I PREFETCH     ACCESS:          0 HIT:          0 MISS:          0 MSHR_MERGE:          0
cpu4->cpu4_L1I WRITE        ACCESS:          0 HIT:          0 MISS:          0 MSHR_MERGE:          0
cpu4->cpu4_L1I TRANSLATION  ACCESS:          0 HIT:          0 MISS:          0 MSHR_MERGE:          0
cpu4->cpu4_L1I PREFETCH REQUESTED:          0 ISSUED:          0 USEFUL:          0 USELESS:          0
cpu4->cpu4_L1I AVERAGE MISS LATENCY: - cycles
cpu4_L1I COHERENCE INVALIDATIONS:          0
cpu4_L1I COHERENCE WRITE-HIT OTHER-SHARER EVENTS:          0
cpu4_L1D COHERENCE INVALIDATIONS:          0
cpu4_L1D COHERENCE WRITE-HIT OTHER-SHARER EVENTS:          0
cpu4->cpu4_ITLB TOTAL        ACCESS:  145453279 HIT:  145453279 MISS:          0 MSHR_MERGE:          0
cpu4->cpu4_ITLB LOAD         ACCESS:  145453279 HIT:  145453279 MISS:          0 MSHR_MERGE:          0
cpu4->cpu4_ITLB RFO          ACCESS:          0 HIT:          0 MISS:          0 MSHR_MERGE:          0
cpu4->cpu4_ITLB PREFETCH     ACCESS:          0 HIT:          0 MISS:          0 MSHR_MERGE:          0
cpu4->cpu4_ITLB WRITE        ACCESS:          0 HIT:          0 MISS:          0 MSHR_MERGE:          0
cpu4->cpu4_ITLB TRANSLATION  ACCESS:          0 HIT:          0 MISS:          0 MSHR_MERGE:          0
cpu4->cpu4_ITLB PREFETCH REQUESTED:          0 ISSUED:          0 USEFUL:          0 USELESS:          0
cpu4->cpu4_ITLB AVERAGE MISS LATENCY: - cycles
cpu4_ITLB COHERENCE INVALIDATIONS:          0
cpu4_ITLB COHERENCE WRITE-HIT OTHER-SHARER EVENTS:          0
cpu4_DTLB COHERENCE INVALIDATIONS:          0
cpu4_DTLB COHERENCE WRITE-HIT OTHER-SHARER EVENTS:          0
cpu3_STLB COHERENCE INVALIDATIONS:          0
cpu3_STLB COHERENCE WRITE-HIT OTHER-SHARER EVENTS:          0
cpu3_L2C COHERENCE INVALIDATIONS:          0
cpu3_L2C COHERENCE WRITE-HIT OTHER-SHARER EVENTS:          0
cpu3->cpu3_L1I TOTAL        ACCESS:  187122328 HIT:  187122328 MISS:          0 MSHR_MERGE:          0
cpu3->cpu3_L1I LOAD         ACCESS:  187122328 HIT:  187122328 MISS:          0 MSHR_MERGE:          0
cpu3->cpu3_L1I RFO          ACCESS:          0 HIT:          0 MISS:          0 MSHR_MERGE:          0
cpu3->cpu3_L1I PREFETCH     ACCESS:          0 HIT:          0 MISS:          0 MSHR_MERGE:          0
cpu3->cpu3_L1I WRITE        ACCESS:          0 HIT:          0 MISS:          0 MSHR_MERGE:          0
cpu3->cpu3_L1I TRANSLATION  ACCESS:          0 HIT:          0 MISS:          0 MSHR_MERGE:          0
cpu3->cpu3_L1I PREFETCH REQUESTED:          0 ISSUED:          0 USEFUL:          0 USELESS:          0
cpu3->cpu3_L1I AVERAGE MISS LATENCY: - cycles
cpu3_L1I COHERENCE INVALIDATIONS:          0
cpu3_L1I COHERENCE WRITE-HIT OTHER-SHARER EVENTS:          0
cpu3_L1D COHERENCE INVALIDATIONS:          0
cpu3_L1D COHERENCE WRITE-HIT OTHER-SHARER EVENTS:          0
cpu3->cpu3_ITLB TOTAL        ACCESS:  156178297 HIT:  156178297 MISS:          0 MSHR_MERGE:          0
cpu3->cpu3_ITLB LOAD         ACCESS:  156178297 HIT:  156178297 MISS:          0 MSHR_MERGE:          0
cpu3->cpu3_ITLB RFO          ACCESS:          0 HIT:          0 MISS:          0 MSHR_MERGE:          0
cpu3->cpu3_ITLB PREFETCH     ACCESS:          0 HIT:          0 MISS:          0 MSHR_MERGE:          0
cpu3->cpu3_ITLB WRITE        ACCESS:          0 HIT:          0 MISS:          0 MSHR_MERGE:          0
cpu3->cpu3_ITLB TRANSLATION  ACCESS:          0 HIT:          0 MISS:          0 MSHR_MERGE:          0
cpu3->cpu3_ITLB PREFETCH REQUESTED:          0 ISSUED:          0 USEFUL:          0 USELESS:          0
cpu3->cpu3_ITLB AVERAGE MISS LATENCY: - cycles
cpu3_ITLB COHERENCE INVALIDATIONS:          0
cpu3_ITLB COHERENCE WRITE-HIT OTHER-SHARER EVENTS:          0
cpu3_DTLB COHERENCE INVALIDATIONS:          0
cpu3_DTLB COHERENCE WRITE-HIT OTHER-SHARER EVENTS:          0
cpu2_STLB COHERENCE INVALIDATIONS:          0
cpu2_STLB COHERENCE WRITE-HIT OTHER-SHARER EVENTS:          0
cpu2_L2C COHERENCE INVALIDATIONS:          0
cpu2_L2C COHERENCE WRITE-HIT OTHER-SHARER EVENTS:          0
cpu2->cpu2_L1I TOTAL        ACCESS:  172277871 HIT:  172277871 MISS:          0 MSHR_MERGE:          0
cpu2->cpu2_L1I LOAD         ACCESS:  172277871 HIT:  172277871 MISS:          0 MSHR_MERGE:          0
cpu2->cpu2_L1I RFO          ACCESS:          0 HIT:          0 MISS:          0 MSHR_MERGE:          0
cpu2->cpu2_L1I PREFETCH     ACCESS:          0 HIT:          0 MISS:          0 MSHR_MERGE:          0
cpu2->cpu2_L1I WRITE        ACCESS:          0 HIT:          0 MISS:          0 MSHR_MERGE:          0
cpu2->cpu2_L1I TRANSLATION  ACCESS:          0 HIT:          0 MISS:          0 MSHR_MERGE:          0
cpu2->cpu2_L1I PREFETCH REQUESTED:          0 ISSUED:          0 USEFUL:          0 USELESS:          0
cpu2->cpu2_L1I AVERAGE MISS LATENCY: - cycles
cpu2_L1I COHERENCE INVALIDATIONS:          0
cpu2_L1I COHERENCE WRITE-HIT OTHER-SHARER EVENTS:          0
cpu2_L1D COHERENCE INVALIDATIONS:          0
cpu2_L1D COHERENCE WRITE-HIT OTHER-SHARER EVENTS:          0
cpu2->cpu2_ITLB TOTAL        ACCESS:  149807023 HIT:  149807023 MISS:          0 MSHR_MERGE:          0
cpu2->cpu2_ITLB LOAD         ACCESS:  149807023 HIT:  149807023 MISS:          0 MSHR_MERGE:          0
cpu2->cpu2_ITLB RFO          ACCESS:          0 HIT:          0 MISS:          0 MSHR_MERGE:          0
cpu2->cpu2_ITLB PREFETCH     ACCESS:          0 HIT:          0 MISS:          0 MSHR_MERGE:          0
cpu2->cpu2_ITLB WRITE        ACCESS:          0 HIT:          0 MISS:          0 MSHR_MERGE:          0
cpu2->cpu2_ITLB TRANSLATION  ACCESS:          0 HIT:          0 MISS:          0 MSHR_MERGE:          0
cpu2->cpu2_ITLB PREFETCH REQUESTED:          0 ISSUED:          0 USEFUL:          0 USELESS:          0
cpu2->cpu2_ITLB AVERAGE MISS LATENCY: - cycles
cpu2_ITLB COHERENCE INVALIDATIONS:          0
cpu2_ITLB COHERENCE WRITE-HIT OTHER-SHARER EVENTS:          0
cpu2_DTLB COHERENCE INVALIDATIONS:          0
cpu2_DTLB COHERENCE WRITE-HIT OTHER-SHARER EVENTS:          0
cpu1->cpu1_STLB TOTAL        ACCESS:    2227501 HIT:    2030608 MISS:     196893 MSHR_MERGE:          0
cpu1->cpu1_STLB LOAD         ACCESS:    2227501 HIT:    2030608 MISS:     196893 MSHR_MERGE:          0
cpu1->cpu1_STLB RFO          ACCESS:          0 HIT:          0 MISS:          0 MSHR_MERGE:          0
cpu1->cpu1_STLB PREFETCH     ACCESS:          0 HIT:          0 MISS:          0 MSHR_MERGE:          0
cpu1->cpu1_STLB WRITE        ACCESS:          0 HIT:          0 MISS:          0 MSHR_MERGE:          0
cpu1->cpu1_STLB TRANSLATION  ACCESS:          0 HIT:          0 MISS:          0 MSHR_MERGE:          0
cpu1->cpu1_STLB PREFETCH REQUESTED:          0 ISSUED:          0 USEFUL:          0 USELESS:          0
cpu1->cpu1_STLB AVERAGE MISS LATENCY: 544.7 cycles
cpu1_STLB COHERENCE INVALIDATIONS:          0
cpu1_STLB COHERENCE WRITE-HIT OTHER-SHARER EVENTS:          0
cpu1->cpu1_L2C TOTAL        ACCESS:    2360176 HIT:     416812 MISS:    1943364 MSHR_MERGE:          0
cpu1->cpu1_L2C LOAD         ACCESS:    1970019 HIT:     415766 MISS:    1554253 MSHR_MERGE:          0
cpu1->cpu1_L2C RFO          ACCESS:          0 HIT:          0 MISS:          0 MSHR_MERGE:          0
cpu1->cpu1_L2C PREFETCH     ACCESS:          0 HIT:          0 MISS:          0 MSHR_MERGE:          0
cpu1->cpu1_L2C WRITE        ACCESS:          0 HIT:          0 MISS:          0 MSHR_MERGE:          0
cpu1->cpu1_L2C TRANSLATION  ACCESS:     390157 HIT:       1046 MISS:     389111 MSHR_MERGE:          0
cpu1->cpu1_L2C PREFETCH REQUESTED:          0 ISSUED:          0 USEFUL:          0 USELESS:          0
cpu1->cpu1_L2C AVERAGE MISS LATENCY: 206.2 cycles
cpu1_L2C COHERENCE INVALIDATIONS:          0
cpu1_L2C COHERENCE WRITE-HIT OTHER-SHARER EVENTS:          0
cpu1->cpu1_L1I TOTAL        ACCESS:   33301528 HIT:   31184907 MISS:    2116621 MSHR_MERGE:     146602
cpu1->cpu1_L1I LOAD         ACCESS:   33301528 HIT:   31184907 MISS:    2116621 MSHR_MERGE:     146602
cpu1->cpu1_L1I RFO          ACCESS:          0 HIT:          0 MISS:          0 MSHR_MERGE:          0
cpu1->cpu1_L1I PREFETCH     ACCESS:          0 HIT:          0 MISS:          0 MSHR_MERGE:          0
cpu1->cpu1_L1I WRITE        ACCESS:          0 HIT:          0 MISS:          0 MSHR_MERGE:          0
cpu1->cpu1_L1I TRANSLATION  ACCESS:          0 HIT:          0 MISS:          0 MSHR_MERGE:          0
cpu1->cpu1_L1I PREFETCH REQUESTED:          0 ISSUED:          0 USEFUL:          0 USELESS:          0
cpu1->cpu1_L1I AVERAGE MISS LATENCY: 159.5 cycles
cpu1_L1I COHERENCE INVALIDATIONS:          0
cpu1_L1I COHERENCE WRITE-HIT OTHER-SHARER EVENTS:          0
cpu1->cpu1_L1D TOTAL        ACCESS:     393923 HIT:       3766 MISS:     390157 MSHR_MERGE:          0
cpu1->cpu1_L1D LOAD         ACCESS:          0 HIT:          0 MISS:          0 MSHR_MERGE:          0
cpu1->cpu1_L1D RFO          ACCESS:          0 HIT:          0 MISS:          0 MSHR_MERGE:          0
cpu1->cpu1_L1D PREFETCH     ACCESS:          0 HIT:          0 MISS:          0 MSHR_MERGE:          0
cpu1->cpu1_L1D WRITE        ACCESS:          0 HIT:          0 MISS:          0 MSHR_MERGE:          0
cpu1->cpu1_L1D TRANSLATION  ACCESS:     393923 HIT:       3766 MISS:     390157 MSHR_MERGE:          0
cpu1->cpu1_L1D PREFETCH REQUESTED:          0 ISSUED:          0 USEFUL:          0 USELESS:          0
cpu1->cpu1_L1D AVERAGE MISS LATENCY: 268.8 cycles
cpu1_L1D COHERENCE INVALIDATIONS:          0
cpu1_L1D COHERENCE WRITE-HIT OTHER-SHARER EVENTS:          0
cpu1->cpu1_ITLB TOTAL        ACCESS:   32765138 HIT:   30486394 MISS:    2278744 MSHR_MERGE:      51243
cpu1->cpu1_ITLB LOAD         ACCESS:   32765138 HIT:   30486394 MISS:    2278744 MSHR_MERGE:      51243
cpu1->cpu1_ITLB RFO          ACCESS:          0 HIT:          0 MISS:          0 MSHR_MERGE:          0
cpu1->cpu1_ITLB PREFETCH     ACCESS:          0 HIT:          0 MISS:          0 MSHR_MERGE:          0
cpu1->cpu1_ITLB WRITE        ACCESS:          0 HIT:          0 MISS:          0 MSHR_MERGE:          0
cpu1->cpu1_ITLB TRANSLATION  ACCESS:          0 HIT:          0 MISS:          0 MSHR_MERGE:          0
cpu1->cpu1_ITLB PREFETCH REQUESTED:          0 ISSUED:          0 USEFUL:          0 USELESS:          0
cpu1->cpu1_ITLB AVERAGE MISS LATENCY: 52.24 cycles
cpu1_ITLB COHERENCE INVALIDATIONS:          0
cpu1_ITLB COHERENCE WRITE-HIT OTHER-SHARER EVENTS:          0
cpu1_DTLB COHERENCE INVALIDATIONS:          0
cpu1_DTLB COHERENCE WRITE-HIT OTHER-SHARER EVENTS:          0
cpu0->cpu0_STLB TOTAL        ACCESS:     316344 HIT:     316344 MISS:          0 MSHR_MERGE:          0
cpu0->cpu0_STLB LOAD         ACCESS:     316344 HIT:     316344 MISS:          0 MSHR_MERGE:          0
cpu0->cpu0_STLB RFO          ACCESS:          0 HIT:          0 MISS:          0 MSHR_MERGE:          0
cpu0->cpu0_STLB PREFETCH     ACCESS:          0 HIT:          0 MISS:          0 MSHR_MERGE:          0
cpu0->cpu0_STLB WRITE        ACCESS:          0 HIT:          0 MISS:          0 MSHR_MERGE:          0
cpu0->cpu0_STLB TRANSLATION  ACCESS:          0 HIT:          0 MISS:          0 MSHR_MERGE:          0
cpu0->cpu0_STLB PREFETCH REQUESTED:          0 ISSUED:          0 USEFUL:          0 USELESS:          0
cpu0->cpu0_STLB AVERAGE MISS LATENCY: - cycles
cpu0_STLB COHERENCE INVALIDATIONS:          0
cpu0_STLB COHERENCE WRITE-HIT OTHER-SHARER EVENTS:          0
cpu0->cpu0_L2C TOTAL        ACCESS:   10112830 HIT:    4904969 MISS:    5207861 MSHR_MERGE:          0
cpu0->cpu0_L2C LOAD         ACCESS:    1598325 HIT:     539098 MISS:    1059227 MSHR_MERGE:          0
cpu0->cpu0_L2C RFO          ACCESS:    4224599 HIT:      75965 MISS:    4148634 MSHR_MERGE:          0
cpu0->cpu0_L2C PREFETCH     ACCESS:          0 HIT:          0 MISS:          0 MSHR_MERGE:          0
cpu0->cpu0_L2C WRITE        ACCESS:    4289906 HIT:    4289906 MISS:          0 MSHR_MERGE:          0
cpu0->cpu0_L2C TRANSLATION  ACCESS:          0 HIT:          0 MISS:          0 MSHR_MERGE:          0
cpu0->cpu0_L2C PREFETCH REQUESTED:          0 ISSUED:          0 USEFUL:          0 USELESS:          0
cpu0->cpu0_L2C AVERAGE MISS LATENCY: 74.58 cycles
cpu0_L2C COHERENCE INVALIDATIONS:          0
cpu0_L2C COHERENCE WRITE-HIT OTHER-SHARER EVENTS:          0
cpu0->cpu0_L1I TOTAL        ACCESS:  141827581 HIT:  141518804 MISS:     308777 MSHR_MERGE:      79444
cpu0->cpu0_L1I LOAD         ACCESS:  141827581 HIT:  141518804 MISS:     308777 MSHR_MERGE:      79444
cpu0->cpu0_L1I RFO          ACCESS:          0 HIT:          0 MISS:          0 MSHR_MERGE:          0
cpu0->cpu0_L1I PREFETCH     ACCESS:          0 HIT:          0 MISS:          0 MSHR_MERGE:          0
cpu0->cpu0_L1I WRITE        ACCESS:          0 HIT:          0 MISS:          0 MSHR_MERGE:          0
cpu0->cpu0_L1I TRANSLATION  ACCESS:          0 HIT:          0 MISS:          0 MSHR_MERGE:          0
cpu0->cpu0_L1I PREFETCH REQUESTED:          0 ISSUED:          0 USEFUL:          0 USELESS:          0
cpu0->cpu0_L1I AVERAGE MISS LATENCY: 93.07 cycles
cpu0_L1I COHERENCE INVALIDATIONS:          0
cpu0_L1I COHERENCE WRITE-HIT OTHER-SHARER EVENTS:          0
cpu0->cpu0_L1D TOTAL        ACCESS:  169026821 HIT:  149757674 MISS:   19269147 MSHR_MERGE:   13669970
cpu0->cpu0_L1D LOAD         ACCESS:   16101442 HIT:   14025057 MISS:    2076385 MSHR_MERGE:     707393
cpu0->cpu0_L1D RFO          ACCESS:          0 HIT:          0 MISS:          0 MSHR_MERGE:          0
cpu0->cpu0_L1D PREFETCH     ACCESS:          0 HIT:          0 MISS:          0 MSHR_MERGE:          0
cpu0->cpu0_L1D WRITE        ACCESS:  152925379 HIT:  135732617 MISS:   17192762 MSHR_MERGE:   12962577
cpu0->cpu0_L1D TRANSLATION  ACCESS:          0 HIT:          0 MISS:          0 MSHR_MERGE:          0
cpu0->cpu0_L1D PREFETCH REQUESTED:          0 ISSUED:          0 USEFUL:          0 USELESS:          0
cpu0->cpu0_L1D AVERAGE MISS LATENCY: 73.77 cycles
cpu0_L1D COHERENCE INVALIDATIONS:          0
cpu0_L1D COHERENCE WRITE-HIT OTHER-SHARER EVENTS:          0
cpu0->cpu0_ITLB TOTAL        ACCESS:  118087614 HIT:  118040132 MISS:      47482 MSHR_MERGE:      18583
cpu0->cpu0_ITLB LOAD         ACCESS:  118087614 HIT:  118040132 MISS:      47482 MSHR_MERGE:      18583
cpu0->cpu0_ITLB RFO          ACCESS:          0 HIT:          0 MISS:          0 MSHR_MERGE:          0
cpu0->cpu0_ITLB PREFETCH     ACCESS:          0 HIT:          0 MISS:          0 MSHR_MERGE:          0
cpu0->cpu0_ITLB WRITE        ACCESS:          0 HIT:          0 MISS:          0 MSHR_MERGE:          0
cpu0->cpu0_ITLB TRANSLATION  ACCESS:          0 HIT:          0 MISS:          0 MSHR_MERGE:          0
cpu0->cpu0_ITLB PREFETCH REQUESTED:          0 ISSUED:          0 USEFUL:          0 USELESS:          0
cpu0->cpu0_ITLB AVERAGE MISS LATENCY: 4.008 cycles
cpu0_ITLB COHERENCE INVALIDATIONS:          0
cpu0_ITLB COHERENCE WRITE-HIT OTHER-SHARER EVENTS:          0
cpu0->cpu0_DTLB TOTAL        ACCESS:  140631295 HIT:  140262795 MISS:     368500 MSHR_MERGE:      81055
cpu0->cpu0_DTLB LOAD         ACCESS:  140631295 HIT:  140262795 MISS:     368500 MSHR_MERGE:      81055
cpu0->cpu0_DTLB RFO          ACCESS:          0 HIT:          0 MISS:          0 MSHR_MERGE:          0
cpu0->cpu0_DTLB PREFETCH     ACCESS:          0 HIT:          0 MISS:          0 MSHR_MERGE:          0
cpu0->cpu0_DTLB WRITE        ACCESS:          0 HIT:          0 MISS:          0 MSHR_MERGE:          0
cpu0->cpu0_DTLB TRANSLATION  ACCESS:          0 HIT:          0 MISS:          0 MSHR_MERGE:          0
cpu0->cpu0_DTLB PREFETCH REQUESTED:          0 ISSUED:          0 USEFUL:          0 USELESS:          0
cpu0->cpu0_DTLB AVERAGE MISS LATENCY: 4 cycles
cpu0_DTLB COHERENCE INVALIDATIONS:          0
cpu0_DTLB COHERENCE WRITE-HIT OTHER-SHARER EVENTS:          0
cpu0->LLC TOTAL        ACCESS:    9404304 HIT:    7417288 MISS:    1987016 MSHR_MERGE:       1938
cpu0->LLC LOAD         ACCESS:    1059227 HIT:     835377 MISS:     223850 MSHR_MERGE:       1640
cpu0->LLC RFO          ACCESS:    4148634 HIT:    3199749 MISS:     948885 MSHR_MERGE:        298
cpu0->LLC PREFETCH     ACCESS:          0 HIT:          0 MISS:          0 MSHR_MERGE:          0
cpu0->LLC WRITE        ACCESS:    4196443 HIT:    3382162 MISS:     814281 MSHR_MERGE:          0
cpu0->LLC TRANSLATION  ACCESS:          0 HIT:          0 MISS:          0 MSHR_MERGE:          0
cpu0->LLC PREFETCH REQUESTED:          0 ISSUED:          0 USEFUL:          0 USELESS:          0
cpu0->LLC AVERAGE MISS LATENCY: 675.3 cycles
cpu1->LLC TOTAL        ACCESS:    1943364 HIT:     460667 MISS:    1482697 MSHR_MERGE:          9
cpu1->LLC LOAD         ACCESS:    1554253 HIT:     459106 MISS:    1095147 MSHR_MERGE:          9
cpu1->LLC RFO          ACCESS:          0 HIT:          0 MISS:          0 MSHR_MERGE:          0
cpu1->LLC PREFETCH     ACCESS:          0 HIT:          0 MISS:          0 MSHR_MERGE:          0
cpu1->LLC WRITE        ACCESS:          0 HIT:          0 MISS:          0 MSHR_MERGE:          0
cpu1->LLC TRANSLATION  ACCESS:     389111 HIT:       1561 MISS:     387550 MSHR_MERGE:          0
cpu1->LLC PREFETCH REQUESTED:          0 ISSUED:          0 USEFUL:          0 USELESS:          0
cpu1->LLC AVERAGE MISS LATENCY: 901 cycles
cpu5->LLC TOTAL        ACCESS:    9230587 HIT:    7391872 MISS:    1838715 MSHR_MERGE:       8841
cpu5->LLC LOAD         ACCESS:    1038597 HIT:     820616 MISS:     217981 MSHR_MERGE:       6804
cpu5->LLC RFO          ACCESS:    4072377 HIT:    3230183 MISS:     842194 MSHR_MERGE:       2037
cpu5->LLC PREFETCH     ACCESS:          0 HIT:          0 MISS:          0 MSHR_MERGE:          0
cpu5->LLC WRITE        ACCESS:    4119613 HIT:    3341073 MISS:     778540 MSHR_MERGE:          0
cpu5->LLC TRANSLATION  ACCESS:          0 HIT:          0 MISS:          0 MSHR_MERGE:          0
cpu5->LLC PREFETCH REQUESTED:          0 ISSUED:          0 USEFUL:          0 USELESS:          0
cpu5->LLC AVERAGE MISS LATENCY: 727.3 cycles
cpu6->LLC TOTAL        ACCESS:    1936692 HIT:     466455 MISS:    1470237 MSHR_MERGE:          8
cpu6->LLC LOAD         ACCESS:    1548923 HIT:     465015 MISS:    1083908 MSHR_MERGE:          8
cpu6->LLC RFO          ACCESS:          0 HIT:          0 MISS:          0 MSHR_MERGE:          0
cpu6->LLC PREFETCH     ACCESS:          0 HIT:          0 MISS:          0 MSHR_MERGE:          0
cpu6->LLC WRITE        ACCESS:          0 HIT:          0 MISS:          0 MSHR_MERGE:          0
cpu6->LLC TRANSLATION  ACCESS:     387769 HIT:       1440 MISS:     386329 MSHR_MERGE:          0
cpu6->LLC PREFETCH REQUESTED:          0 ISSUED:          0 USEFUL:          0 USELESS:          0
cpu6->LLC AVERAGE MISS LATENCY: 908.7 cycles
LLC COHERENCE INVALIDATIONS:    6905346
LLC COHERENCE WRITE-HIT OTHER-SHARER EVENTS:    6715555

DRAM Statistics

Channel 0 RQ ROW_BUFFER_HIT:      81941
  ROW_BUFFER_MISS:    5081230
  AVG DBUS CONGESTED CYCLE: 6.693
Channel 0 WQ ROW_BUFFER_HIT:     333218
  ROW_BUFFER_MISS:    1415566
  FULL:        658
Channel 0 REFRESHES ISSUED:      27154

VMEM ALIASED FILLS (cross-CPU shared-page hits): 304360
