nohup: ignoring input
[VMEM] WARNING: physical memory size is smaller than virtual memory size.

*** ChampSim Multicore Out-of-Order Simulator ***
Warmup Instructions: 50000000
Simulation Instructions: 100000000
Number of CPUs: 8
Page size: 4096

Off-chip DRAM Size: 16 GiB Channels: 1 Width: 64-bit Data Rate: 3205 MT/s
*** Reached end of trace: (7, "/home/harshraj/COALESCE-Hashed-Perceptron-Cache-Replacement-Policy/simulator/traces/canneal_big3.champsimtrace")
*** Reached end of trace: (3, "/home/harshraj/COALESCE-Hashed-Perceptron-Cache-Replacement-Policy/simulator/traces/canneal_big3.champsimtrace")
*** Reached end of trace: (2, "/home/harshraj/COALESCE-Hashed-Perceptron-Cache-Replacement-Policy/simulator/traces/canneal_big2.champsimtrace")
*** Reached end of trace: (6, "/home/harshraj/COALESCE-Hashed-Perceptron-Cache-Replacement-Policy/simulator/traces/canneal_big2.champsimtrace")
*** Reached end of trace: (0, "/home/harshraj/COALESCE-Hashed-Perceptron-Cache-Replacement-Policy/simulator/traces/canneal_big0.champsimtrace")
*** Reached end of trace: (4, "/home/harshraj/COALESCE-Hashed-Perceptron-Cache-Replacement-Policy/simulator/traces/canneal_big0.champsimtrace")
*** Reached end of trace: (7, "/home/harshraj/COALESCE-Hashed-Perceptron-Cache-Replacement-Policy/simulator/traces/canneal_big3.champsimtrace")
*** Reached end of trace: (3, "/home/harshraj/COALESCE-Hashed-Perceptron-Cache-Replacement-Policy/simulator/traces/canneal_big3.champsimtrace")
Heartbeat CPU 7 instructions: 10000001 cycles: 2503656 heartbeat IPC: 3.994 cumulative IPC: 3.994 (Simulation time: 00 hr 05 min 27 sec)
Heartbeat CPU 3 instructions: 10000001 cycles: 2503658 heartbeat IPC: 3.994 cumulative IPC: 3.994 (Simulation time: 00 hr 05 min 27 sec)
*** Reached end of trace: (2, "/home/harshraj/COALESCE-Hashed-Perceptron-Cache-Replacement-Policy/simulator/traces/canneal_big2.champsimtrace")
*** Reached end of trace: (6, "/home/harshraj/COALESCE-Hashed-Perceptron-Cache-Replacement-Policy/simulator/traces/canneal_big2.champsimtrace")
Heartbeat CPU 2 instructions: 10000001 cycles: 2503808 heartbeat IPC: 3.994 cumulative IPC: 3.994 (Simulation time: 00 hr 05 min 27 sec)
Heartbeat CPU 6 instructions: 10000001 cycles: 2503811 heartbeat IPC: 3.994 cumulative IPC: 3.994 (Simulation time: 00 hr 05 min 27 sec)
*** Reached end of trace: (7, "/home/harshraj/COALESCE-Hashed-Perceptron-Cache-Replacement-Policy/simulator/traces/canneal_big3.champsimtrace")
*** Reached end of trace: (3, "/home/harshraj/COALESCE-Hashed-Perceptron-Cache-Replacement-Policy/simulator/traces/canneal_big3.champsimtrace")
*** Reached end of trace: (2, "/home/harshraj/COALESCE-Hashed-Perceptron-Cache-Replacement-Policy/simulator/traces/canneal_big2.champsimtrace")
*** Reached end of trace: (6, "/home/harshraj/COALESCE-Hashed-Perceptron-Cache-Replacement-Policy/simulator/traces/canneal_big2.champsimtrace")
*** Reached end of trace: (0, "/home/harshraj/COALESCE-Hashed-Perceptron-Cache-Replacement-Policy/simulator/traces/canneal_big0.champsimtrace")
Heartbeat CPU 0 instructions: 10000003 cycles: 3988981 heartbeat IPC: 2.507 cumulative IPC: 2.507 (Simulation time: 00 hr 08 min 46 sec)
*** Reached end of trace: (4, "/home/harshraj/COALESCE-Hashed-Perceptron-Cache-Replacement-Policy/simulator/traces/canneal_big0.champsimtrace")
Heartbeat CPU 4 instructions: 10000003 cycles: 3993167 heartbeat IPC: 2.504 cumulative IPC: 2.504 (Simulation time: 00 hr 08 min 47 sec)
*** Reached end of trace: (5, "/home/harshraj/COALESCE-Hashed-Perceptron-Cache-Replacement-Policy/simulator/traces/canneal_big1.champsimtrace")
*** Reached end of trace: (1, "/home/harshraj/COALESCE-Hashed-Perceptron-Cache-Replacement-Policy/simulator/traces/canneal_big1.champsimtrace")
*** Reached end of trace: (7, "/home/harshraj/COALESCE-Hashed-Perceptron-Cache-Replacement-Policy/simulator/traces/canneal_big3.champsimtrace")
*** Reached end of trace: (3, "/home/harshraj/COALESCE-Hashed-Perceptron-Cache-Replacement-Policy/simulator/traces/canneal_big3.champsimtrace")
Heartbeat CPU 7 instructions: 20000001 cycles: 5003656 heartbeat IPC: 4 cumulative IPC: 3.997 (Simulation time: 00 hr 11 min 08 sec)
Heartbeat CPU 3 instructions: 20000001 cycles: 5003658 heartbeat IPC: 4 cumulative IPC: 3.997 (Simulation time: 00 hr 11 min 08 sec)
*** Reached end of trace: (2, "/home/harshraj/COALESCE-Hashed-Perceptron-Cache-Replacement-Policy/simulator/traces/canneal_big2.champsimtrace")
*** Reached end of trace: (6, "/home/harshraj/COALESCE-Hashed-Perceptron-Cache-Replacement-Policy/simulator/traces/canneal_big2.champsimtrace")
Heartbeat CPU 2 instructions: 20000001 cycles: 5003808 heartbeat IPC: 4 cumulative IPC: 3.997 (Simulation time: 00 hr 11 min 08 sec)
Heartbeat CPU 6 instructions: 20000001 cycles: 5003811 heartbeat IPC: 4 cumulative IPC: 3.997 (Simulation time: 00 hr 11 min 08 sec)
*** Reached end of trace: (0, "/home/harshraj/COALESCE-Hashed-Perceptron-Cache-Replacement-Policy/simulator/traces/canneal_big0.champsimtrace")
*** Reached end of trace: (4, "/home/harshraj/COALESCE-Hashed-Perceptron-Cache-Replacement-Policy/simulator/traces/canneal_big0.champsimtrace")
*** Reached end of trace: (7, "/home/harshraj/COALESCE-Hashed-Perceptron-Cache-Replacement-Policy/simulator/traces/canneal_big3.champsimtrace")
*** Reached end of trace: (3, "/home/harshraj/COALESCE-Hashed-Perceptron-Cache-Replacement-Policy/simulator/traces/canneal_big3.champsimtrace")
*** Reached end of trace: (2, "/home/harshraj/COALESCE-Hashed-Perceptron-Cache-Replacement-Policy/simulator/traces/canneal_big2.champsimtrace")
*** Reached end of trace: (6, "/home/harshraj/COALESCE-Hashed-Perceptron-Cache-Replacement-Policy/simulator/traces/canneal_big2.champsimtrace")
*** Reached end of trace: (1, "/home/harshraj/COALESCE-Hashed-Perceptron-Cache-Replacement-Policy/simulator/traces/canneal_big1.champsimtrace")
Heartbeat CPU 1 instructions: 10000002 cycles: 7294824 heartbeat IPC: 1.371 cumulative IPC: 1.371 (Simulation time: 00 hr 16 min 23 sec)
*** Reached end of trace: (5, "/home/harshraj/COALESCE-Hashed-Perceptron-Cache-Replacement-Policy/simulator/traces/canneal_big1.champsimtrace")
Heartbeat CPU 5 instructions: 10000002 cycles: 7295334 heartbeat IPC: 1.371 cumulative IPC: 1.371 (Simulation time: 00 hr 16 min 23 sec)
*** Reached end of trace: (7, "/home/harshraj/COALESCE-Hashed-Perceptron-Cache-Replacement-Policy/simulator/traces/canneal_big3.champsimtrace")
*** Reached end of trace: (3, "/home/harshraj/COALESCE-Hashed-Perceptron-Cache-Replacement-Policy/simulator/traces/canneal_big3.champsimtrace")
Heartbeat CPU 7 instructions: 30000001 cycles: 7503656 heartbeat IPC: 4 cumulative IPC: 3.998 (Simulation time: 00 hr 16 min 51 sec)
Heartbeat CPU 3 instructions: 30000001 cycles: 7503658 heartbeat IPC: 4 cumulative IPC: 3.998 (Simulation time: 00 hr 16 min 51 sec)
*** Reached end of trace: (2, "/home/harshraj/COALESCE-Hashed-Perceptron-Cache-Replacement-Policy/simulator/traces/canneal_big2.champsimtrace")
*** Reached end of trace: (6, "/home/harshraj/COALESCE-Hashed-Perceptron-Cache-Replacement-Policy/simulator/traces/canneal_big2.champsimtrace")
Heartbeat CPU 2 instructions: 30000001 cycles: 7503808 heartbeat IPC: 4 cumulative IPC: 3.998 (Simulation time: 00 hr 16 min 51 sec)
Heartbeat CPU 6 instructions: 30000001 cycles: 7503811 heartbeat IPC: 4 cumulative IPC: 3.998 (Simulation time: 00 hr 16 min 51 sec)
*** Reached end of trace: (0, "/home/harshraj/COALESCE-Hashed-Perceptron-Cache-Replacement-Policy/simulator/traces/canneal_big0.champsimtrace")
Heartbeat CPU 0 instructions: 20000006 cycles: 7835707 heartbeat IPC: 2.6 cumulative IPC: 2.552 (Simulation time: 00 hr 17 min 36 sec)
*** Reached end of trace: (4, "/home/harshraj/COALESCE-Hashed-Perceptron-Cache-Replacement-Policy/simulator/traces/canneal_big0.champsimtrace")
Heartbeat CPU 4 instructions: 20000006 cycles: 7846809 heartbeat IPC: 2.595 cumulative IPC: 2.549 (Simulation time: 00 hr 17 min 38 sec)
*** Reached end of trace: (7, "/home/harshraj/COALESCE-Hashed-Perceptron-Cache-Replacement-Policy/simulator/traces/canneal_big3.champsimtrace")
*** Reached end of trace: (3, "/home/harshraj/COALESCE-Hashed-Perceptron-Cache-Replacement-Policy/simulator/traces/canneal_big3.champsimtrace")
*** Reached end of trace: (2, "/home/harshraj/COALESCE-Hashed-Perceptron-Cache-Replacement-Policy/simulator/traces/canneal_big2.champsimtrace")
*** Reached end of trace: (6, "/home/harshraj/COALESCE-Hashed-Perceptron-Cache-Replacement-Policy/simulator/traces/canneal_big2.champsimtrace")
*** Reached end of trace: (0, "/home/harshraj/COALESCE-Hashed-Perceptron-Cache-Replacement-Policy/simulator/traces/canneal_big0.champsimtrace")
*** Reached end of trace: (4, "/home/harshraj/COALESCE-Hashed-Perceptron-Cache-Replacement-Policy/simulator/traces/canneal_big0.champsimtrace")
*** Reached end of trace: (7, "/home/harshraj/COALESCE-Hashed-Perceptron-Cache-Replacement-Policy/simulator/traces/canneal_big3.champsimtrace")
*** Reached end of trace: (3, "/home/harshraj/COALESCE-Hashed-Perceptron-Cache-Replacement-Policy/simulator/traces/canneal_big3.champsimtrace")
Heartbeat CPU 7 instructions: 40000001 cycles: 10003656 heartbeat IPC: 4 cumulative IPC: 3.999 (Simulation time: 00 hr 22 min 38 sec)
Heartbeat CPU 3 instructions: 40000001 cycles: 10003658 heartbeat IPC: 4 cumulative IPC: 3.999 (Simulation time: 00 hr 22 min 38 sec)
*** Reached end of trace: (2, "/home/harshraj/COALESCE-Hashed-Perceptron-Cache-Replacement-Policy/simulator/traces/canneal_big2.champsimtrace")
*** Reached end of trace: (6, "/home/harshraj/COALESCE-Hashed-Perceptron-Cache-Replacement-Policy/simulator/traces/canneal_big2.champsimtrace")
Heartbeat CPU 2 instructions: 40000001 cycles: 10003808 heartbeat IPC: 4 cumulative IPC: 3.998 (Simulation time: 00 hr 22 min 38 sec)
Heartbeat CPU 6 instructions: 40000001 cycles: 10003811 heartbeat IPC: 4 cumulative IPC: 3.998 (Simulation time: 00 hr 22 min 38 sec)
*** Reached end of trace: (1, "/home/harshraj/COALESCE-Hashed-Perceptron-Cache-Replacement-Policy/simulator/traces/canneal_big1.champsimtrace")
*** Reached end of trace: (5, "/home/harshraj/COALESCE-Hashed-Perceptron-Cache-Replacement-Policy/simulator/traces/canneal_big1.champsimtrace")
*** Reached end of trace: (7, "/home/harshraj/COALESCE-Hashed-Perceptron-Cache-Replacement-Policy/simulator/traces/canneal_big3.champsimtrace")
*** Reached end of trace: (3, "/home/harshraj/COALESCE-Hashed-Perceptron-Cache-Replacement-Policy/simulator/traces/canneal_big3.champsimtrace")
*** Reached end of trace: (2, "/home/harshraj/COALESCE-Hashed-Perceptron-Cache-Replacement-Policy/simulator/traces/canneal_big2.champsimtrace")
*** Reached end of trace: (6, "/home/harshraj/COALESCE-Hashed-Perceptron-Cache-Replacement-Policy/simulator/traces/canneal_big2.champsimtrace")
*** Reached end of trace: (0, "/home/harshraj/COALESCE-Hashed-Perceptron-Cache-Replacement-Policy/simulator/traces/canneal_big0.champsimtrace")
Heartbeat CPU 0 instructions: 30000009 cycles: 11681938 heartbeat IPC: 2.6 cumulative IPC: 2.568 (Simulation time: 00 hr 26 min 27 sec)
*** Reached end of trace: (4, "/home/harshraj/COALESCE-Hashed-Perceptron-Cache-Replacement-Policy/simulator/traces/canneal_big0.champsimtrace")
Heartbeat CPU 4 instructions: 30000009 cycles: 11700747 heartbeat IPC: 2.595 cumulative IPC: 2.564 (Simulation time: 00 hr 26 min 29 sec)
*** Reached end of trace: (7, "/home/harshraj/COALESCE-Hashed-Perceptron-Cache-Replacement-Policy/simulator/traces/canneal_big3.champsimtrace")
*** Reached end of trace: (3, "/home/harshraj/COALESCE-Hashed-Perceptron-Cache-Replacement-Policy/simulator/traces/canneal_big3.champsimtrace")
Heartbeat CPU 7 instructions: 50000001 cycles: 12503656 heartbeat IPC: 4 cumulative IPC: 3.999 (Simulation time: 00 hr 28 min 23 sec)
Warmup finished CPU 7 instructions: 50000001 cycles: 12503656 cumulative IPC: 3.999 (Simulation time: 00 hr 28 min 23 sec)
Heartbeat CPU 3 instructions: 50000001 cycles: 12503658 heartbeat IPC: 4 cumulative IPC: 3.999 (Simulation time: 00 hr 28 min 23 sec)
Warmup finished CPU 3 instructions: 50000001 cycles: 12503658 cumulative IPC: 3.999 (Simulation time: 00 hr 28 min 23 sec)
*** Reached end of trace: (2, "/home/harshraj/COALESCE-Hashed-Perceptron-Cache-Replacement-Policy/simulator/traces/canneal_big2.champsimtrace")
*** Reached end of trace: (6, "/home/harshraj/COALESCE-Hashed-Perceptron-Cache-Replacement-Policy/simulator/traces/canneal_big2.champsimtrace")
Heartbeat CPU 2 instructions: 50000001 cycles: 12503808 heartbeat IPC: 4 cumulative IPC: 3.999 (Simulation time: 00 hr 28 min 23 sec)
Warmup finished CPU 2 instructions: 50000001 cycles: 12503808 cumulative IPC: 3.999 (Simulation time: 00 hr 28 min 23 sec)
Heartbeat CPU 6 instructions: 50000001 cycles: 12503811 heartbeat IPC: 4 cumulative IPC: 3.999 (Simulation time: 00 hr 28 min 23 sec)
Warmup finished CPU 6 instructions: 50000001 cycles: 12503811 cumulative IPC: 3.999 (Simulation time: 00 hr 28 min 23 sec)
*** Reached end of trace: (1, "/home/harshraj/COALESCE-Hashed-Perceptron-Cache-Replacement-Policy/simulator/traces/canneal_big1.champsimtrace")
Heartbeat CPU 1 instructions: 20000004 cycles: 12981258 heartbeat IPC: 1.759 cumulative IPC: 1.541 (Simulation time: 00 hr 29 min 28 sec)
*** Reached end of trace: (5, "/home/harshraj/COALESCE-Hashed-Perceptron-Cache-Replacement-Policy/simulator/traces/canneal_big1.champsimtrace")
Heartbeat CPU 5 instructions: 20000004 cycles: 12984592 heartbeat IPC: 1.758 cumulative IPC: 1.54 (Simulation time: 00 hr 29 min 28 sec)
*** Reached end of trace: (0, "/home/harshraj/COALESCE-Hashed-Perceptron-Cache-Replacement-Policy/simulator/traces/canneal_big0.champsimtrace")
*** Reached end of trace: (4, "/home/harshraj/COALESCE-Hashed-Perceptron-Cache-Replacement-Policy/simulator/traces/canneal_big0.champsimtrace")
*** Reached end of trace: (7, "/home/harshraj/COALESCE-Hashed-Perceptron-Cache-Replacement-Policy/simulator/traces/canneal_big3.champsimtrace")
*** Reached end of trace: (3, "/home/harshraj/COALESCE-Hashed-Perceptron-Cache-Replacement-Policy/simulator/traces/canneal_big3.champsimtrace")
*** Reached end of trace: (2, "/home/harshraj/COALESCE-Hashed-Perceptron-Cache-Replacement-Policy/simulator/traces/canneal_big2.champsimtrace")
*** Reached end of trace: (6, "/home/harshraj/COALESCE-Hashed-Perceptron-Cache-Replacement-Policy/simulator/traces/canneal_big2.champsimtrace")
*** Reached end of trace: (7, "/home/harshraj/COALESCE-Hashed-Perceptron-Cache-Replacement-Policy/simulator/traces/canneal_big3.champsimtrace")
*** Reached end of trace: (3, "/home/harshraj/COALESCE-Hashed-Perceptron-Cache-Replacement-Policy/simulator/traces/canneal_big3.champsimtrace")
Heartbeat CPU 7 instructions: 60000001 cycles: 15003656 heartbeat IPC: 4 cumulative IPC: 3.999 (Simulation time: 00 hr 34 min 06 sec)
Heartbeat CPU 3 instructions: 60000001 cycles: 15003658 heartbeat IPC: 4 cumulative IPC: 3.999 (Simulation time: 00 hr 34 min 06 sec)
*** Reached end of trace: (2, "/home/harshraj/COALESCE-Hashed-Perceptron-Cache-Replacement-Policy/simulator/traces/canneal_big2.champsimtrace")
*** Reached end of trace: (6, "/home/harshraj/COALESCE-Hashed-Perceptron-Cache-Replacement-Policy/simulator/traces/canneal_big2.champsimtrace")
Heartbeat CPU 2 instructions: 60000001 cycles: 15003808 heartbeat IPC: 4 cumulative IPC: 3.999 (Simulation time: 00 hr 34 min 06 sec)
Heartbeat CPU 6 instructions: 60000001 cycles: 15003811 heartbeat IPC: 4 cumulative IPC: 3.999 (Simulation time: 00 hr 34 min 06 sec)
*** Reached end of trace: (0, "/home/harshraj/COALESCE-Hashed-Perceptron-Cache-Replacement-Policy/simulator/traces/canneal_big0.champsimtrace")
Heartbeat CPU 0 instructions: 40000012 cycles: 15528527 heartbeat IPC: 2.6 cumulative IPC: 2.576 (Simulation time: 00 hr 35 min 17 sec)
*** Reached end of trace: (4, "/home/harshraj/COALESCE-Hashed-Perceptron-Cache-Replacement-Policy/simulator/traces/canneal_big0.champsimtrace")
Heartbeat CPU 4 instructions: 40000012 cycles: 15554323 heartbeat IPC: 2.595 cumulative IPC: 2.572 (Simulation time: 00 hr 35 min 20 sec)
*** Reached end of trace: (1, "/home/harshraj/COALESCE-Hashed-Perceptron-Cache-Replacement-Policy/simulator/traces/canneal_big1.champsimtrace")
*** Reached end of trace: (5, "/home/harshraj/COALESCE-Hashed-Perceptron-Cache-Replacement-Policy/simulator/traces/canneal_big1.champsimtrace")
*** Reached end of trace: (7, "/home/harshraj/COALESCE-Hashed-Perceptron-Cache-Replacement-Policy/simulator/traces/canneal_big3.champsimtrace")
*** Reached end of trace: (3, "/home/harshraj/COALESCE-Hashed-Perceptron-Cache-Replacement-Policy/simulator/traces/canneal_big3.champsimtrace")
*** Reached end of trace: (2, "/home/harshraj/COALESCE-Hashed-Perceptron-Cache-Replacement-Policy/simulator/traces/canneal_big2.champsimtrace")
*** Reached end of trace: (6, "/home/harshraj/COALESCE-Hashed-Perceptron-Cache-Replacement-Policy/simulator/traces/canneal_big2.champsimtrace")
*** Reached end of trace: (0, "/home/harshraj/COALESCE-Hashed-Perceptron-Cache-Replacement-Policy/simulator/traces/canneal_big0.champsimtrace")
*** Reached end of trace: (4, "/home/harshraj/COALESCE-Hashed-Perceptron-Cache-Replacement-Policy/simulator/traces/canneal_big0.champsimtrace")
*** Reached end of trace: (7, "/home/harshraj/COALESCE-Hashed-Perceptron-Cache-Replacement-Policy/simulator/traces/canneal_big3.champsimtrace")
*** Reached end of trace: (3, "/home/harshraj/COALESCE-Hashed-Perceptron-Cache-Replacement-Policy/simulator/traces/canneal_big3.champsimtrace")
Heartbeat CPU 7 instructions: 70000001 cycles: 17503656 heartbeat IPC: 4 cumulative IPC: 3.999 (Simulation time: 00 hr 39 min 49 sec)
Heartbeat CPU 3 instructions: 70000001 cycles: 17503658 heartbeat IPC: 4 cumulative IPC: 3.999 (Simulation time: 00 hr 39 min 49 sec)
*** Reached end of trace: (2, "/home/harshraj/COALESCE-Hashed-Perceptron-Cache-Replacement-Policy/simulator/traces/canneal_big2.champsimtrace")
*** Reached end of trace: (6, "/home/harshraj/COALESCE-Hashed-Perceptron-Cache-Replacement-Policy/simulator/traces/canneal_big2.champsimtrace")
Heartbeat CPU 2 instructions: 70000001 cycles: 17503808 heartbeat IPC: 4 cumulative IPC: 3.999 (Simulation time: 00 hr 39 min 49 sec)
Heartbeat CPU 6 instructions: 70000001 cycles: 17503811 heartbeat IPC: 4 cumulative IPC: 3.999 (Simulation time: 00 hr 39 min 49 sec)
*** Reached end of trace: (1, "/home/harshraj/COALESCE-Hashed-Perceptron-Cache-Replacement-Policy/simulator/traces/canneal_big1.champsimtrace")
Heartbeat CPU 1 instructions: 30000004 cycles: 18667380 heartbeat IPC: 1.759 cumulative IPC: 1.607 (Simulation time: 00 hr 42 min 31 sec)
*** Reached end of trace: (5, "/home/harshraj/COALESCE-Hashed-Perceptron-Cache-Replacement-Policy/simulator/traces/canneal_big1.champsimtrace")
Heartbeat CPU 5 instructions: 30000004 cycles: 18676774 heartbeat IPC: 1.757 cumulative IPC: 1.606 (Simulation time: 00 hr 42 min 32 sec)
*** Reached end of trace: (7, "/home/harshraj/COALESCE-Hashed-Perceptron-Cache-Replacement-Policy/simulator/traces/canneal_big3.champsimtrace")
*** Reached end of trace: (3, "/home/harshraj/COALESCE-Hashed-Perceptron-Cache-Replacement-Policy/simulator/traces/canneal_big3.champsimtrace")
*** Reached end of trace: (2, "/home/harshraj/COALESCE-Hashed-Perceptron-Cache-Replacement-Policy/simulator/traces/canneal_big2.champsimtrace")
*** Reached end of trace: (6, "/home/harshraj/COALESCE-Hashed-Perceptron-Cache-Replacement-Policy/simulator/traces/canneal_big2.champsimtrace")
*** Reached end of trace: (0, "/home/harshraj/COALESCE-Hashed-Perceptron-Cache-Replacement-Policy/simulator/traces/canneal_big0.champsimtrace")
Warmup finished CPU 0 instructions: 50000000 cycles: 19374957 cumulative IPC: 2.581 (Simulation time: 00 hr 44 min 06 sec)
Heartbeat CPU 0 instructions: 50000015 cycles: 19374960 heartbeat IPC: 2.6 cumulative IPC: 2.581 (Simulation time: 00 hr 44 min 06 sec)
*** Reached end of trace: (4, "/home/harshraj/COALESCE-Hashed-Perceptron-Cache-Replacement-Policy/simulator/traces/canneal_big0.champsimtrace")
Warmup finished CPU 4 instructions: 50000000 cycles: 19408251 cumulative IPC: 2.576 (Simulation time: 00 hr 44 min 11 sec)
Heartbeat CPU 4 instructions: 50000015 cycles: 19408254 heartbeat IPC: 2.595 cumulative IPC: 2.576 (Simulation time: 00 hr 44 min 11 sec)
*** Reached end of trace: (7, "/home/harshraj/COALESCE-Hashed-Perceptron-Cache-Replacement-Policy/simulator/traces/canneal_big3.champsimtrace")
*** Reached end of trace: (3, "/home/harshraj/COALESCE-Hashed-Perceptron-Cache-Replacement-Policy/simulator/traces/canneal_big3.champsimtrace")
Heartbeat CPU 7 instructions: 80000001 cycles: 20003656 heartbeat IPC: 4 cumulative IPC: 3.999 (Simulation time: 00 hr 45 min 36 sec)
Heartbeat CPU 3 instructions: 80000001 cycles: 20003658 heartbeat IPC: 4 cumulative IPC: 3.999 (Simulation time: 00 hr 45 min 36 sec)
*** Reached end of trace: (2, "/home/harshraj/COALESCE-Hashed-Perceptron-Cache-Replacement-Policy/simulator/traces/canneal_big2.champsimtrace")
*** Reached end of trace: (6, "/home/harshraj/COALESCE-Hashed-Perceptron-Cache-Replacement-Policy/simulator/traces/canneal_big2.champsimtrace")
Heartbeat CPU 2 instructions: 80000001 cycles: 20003808 heartbeat IPC: 4 cumulative IPC: 3.999 (Simulation time: 00 hr 45 min 36 sec)
Heartbeat CPU 6 instructions: 80000001 cycles: 20003811 heartbeat IPC: 4 cumulative IPC: 3.999 (Simulation time: 00 hr 45 min 36 sec)
*** Reached end of trace: (7, "/home/harshraj/COALESCE-Hashed-Perceptron-Cache-Replacement-Policy/simulator/traces/canneal_big3.champsimtrace")
*** Reached end of trace: (3, "/home/harshraj/COALESCE-Hashed-Perceptron-Cache-Replacement-Policy/simulator/traces/canneal_big3.champsimtrace")
*** Reached end of trace: (2, "/home/harshraj/COALESCE-Hashed-Perceptron-Cache-Replacement-Policy/simulator/traces/canneal_big2.champsimtrace")
*** Reached end of trace: (6, "/home/harshraj/COALESCE-Hashed-Perceptron-Cache-Replacement-Policy/simulator/traces/canneal_big2.champsimtrace")
*** Reached end of trace: (0, "/home/harshraj/COALESCE-Hashed-Perceptron-Cache-Replacement-Policy/simulator/traces/canneal_big0.champsimtrace")
*** Reached end of trace: (4, "/home/harshraj/COALESCE-Hashed-Perceptron-Cache-Replacement-Policy/simulator/traces/canneal_big0.champsimtrace")
*** Reached end of trace: (1, "/home/harshraj/COALESCE-Hashed-Perceptron-Cache-Replacement-Policy/simulator/traces/canneal_big1.champsimtrace")
*** Reached end of trace: (5, "/home/harshraj/COALESCE-Hashed-Perceptron-Cache-Replacement-Policy/simulator/traces/canneal_big1.champsimtrace")
*** Reached end of trace: (7, "/home/harshraj/COALESCE-Hashed-Perceptron-Cache-Replacement-Policy/simulator/traces/canneal_big3.champsimtrace")
*** Reached end of trace: (3, "/home/harshraj/COALESCE-Hashed-Perceptron-Cache-Replacement-Policy/simulator/traces/canneal_big3.champsimtrace")
Heartbeat CPU 7 instructions: 90000001 cycles: 22503656 heartbeat IPC: 4 cumulative IPC: 3.999 (Simulation time: 00 hr 51 min 19 sec)
Heartbeat CPU 3 instructions: 90000001 cycles: 22503658 heartbeat IPC: 4 cumulative IPC: 3.999 (Simulation time: 00 hr 51 min 19 sec)
*** Reached end of trace: (2, "/home/harshraj/COALESCE-Hashed-Perceptron-Cache-Replacement-Policy/simulator/traces/canneal_big2.champsimtrace")
*** Reached end of trace: (6, "/home/harshraj/COALESCE-Hashed-Perceptron-Cache-Replacement-Policy/simulator/traces/canneal_big2.champsimtrace")
Heartbeat CPU 2 instructions: 90000001 cycles: 22503808 heartbeat IPC: 4 cumulative IPC: 3.999 (Simulation time: 00 hr 51 min 19 sec)
Heartbeat CPU 6 instructions: 90000001 cycles: 22503811 heartbeat IPC: 4 cumulative IPC: 3.999 (Simulation time: 00 hr 51 min 19 sec)
*** Reached end of trace: (0, "/home/harshraj/COALESCE-Hashed-Perceptron-Cache-Replacement-Policy/simulator/traces/canneal_big0.champsimtrace")
Heartbeat CPU 0 instructions: 60000018 cycles: 23221641 heartbeat IPC: 2.6 cumulative IPC: 2.584 (Simulation time: 00 hr 52 min 57 sec)
*** Reached end of trace: (4, "/home/harshraj/COALESCE-Hashed-Perceptron-Cache-Replacement-Policy/simulator/traces/canneal_big0.champsimtrace")
Heartbeat CPU 4 instructions: 60000018 cycles: 23262265 heartbeat IPC: 2.595 cumulative IPC: 2.579 (Simulation time: 00 hr 53 min 02 sec)
*** Reached end of trace: (7, "/home/harshraj/COALESCE-Hashed-Perceptron-Cache-Replacement-Policy/simulator/traces/canneal_big3.champsimtrace")
*** Reached end of trace: (3, "/home/harshraj/COALESCE-Hashed-Perceptron-Cache-Replacement-Policy/simulator/traces/canneal_big3.champsimtrace")
*** Reached end of trace: (2, "/home/harshraj/COALESCE-Hashed-Perceptron-Cache-Replacement-Policy/simulator/traces/canneal_big2.champsimtrace")
*** Reached end of trace: (6, "/home/harshraj/COALESCE-Hashed-Perceptron-Cache-Replacement-Policy/simulator/traces/canneal_big2.champsimtrace")
*** Reached end of trace: (1, "/home/harshraj/COALESCE-Hashed-Perceptron-Cache-Replacement-Policy/simulator/traces/canneal_big1.champsimtrace")
Heartbeat CPU 1 instructions: 40000006 cycles: 24352991 heartbeat IPC: 1.759 cumulative IPC: 1.643 (Simulation time: 00 hr 55 min 35 sec)
*** Reached end of trace: (5, "/home/harshraj/COALESCE-Hashed-Perceptron-Cache-Replacement-Policy/simulator/traces/canneal_big1.champsimtrace")
Heartbeat CPU 5 instructions: 40000006 cycles: 24372733 heartbeat IPC: 1.756 cumulative IPC: 1.641 (Simulation time: 00 hr 55 min 37 sec)
*** Reached end of trace: (7, "/home/harshraj/COALESCE-Hashed-Perceptron-Cache-Replacement-Policy/simulator/traces/canneal_big3.champsimtrace")
*** Reached end of trace: (3, "/home/harshraj/COALESCE-Hashed-Perceptron-Cache-Replacement-Policy/simulator/traces/canneal_big3.champsimtrace")
Heartbeat CPU 7 instructions: 100000001 cycles: 25003656 heartbeat IPC: 4 cumulative IPC: 3.999 (Simulation time: 00 hr 57 min 02 sec)
Heartbeat CPU 3 instructions: 100000001 cycles: 25003658 heartbeat IPC: 4 cumulative IPC: 3.999 (Simulation time: 00 hr 57 min 02 sec)
*** Reached end of trace: (2, "/home/harshraj/COALESCE-Hashed-Perceptron-Cache-Replacement-Policy/simulator/traces/canneal_big2.champsimtrace")
*** Reached end of trace: (6, "/home/harshraj/COALESCE-Hashed-Perceptron-Cache-Replacement-Policy/simulator/traces/canneal_big2.champsimtrace")
Heartbeat CPU 2 instructions: 100000001 cycles: 25003808 heartbeat IPC: 4 cumulative IPC: 3.999 (Simulation time: 00 hr 57 min 02 sec)
Heartbeat CPU 6 instructions: 100000001 cycles: 25003811 heartbeat IPC: 4 cumulative IPC: 3.999 (Simulation time: 00 hr 57 min 02 sec)
*** Reached end of trace: (0, "/home/harshraj/COALESCE-Hashed-Perceptron-Cache-Replacement-Policy/simulator/traces/canneal_big0.champsimtrace")
*** Reached end of trace: (4, "/home/harshraj/COALESCE-Hashed-Perceptron-Cache-Replacement-Policy/simulator/traces/canneal_big0.champsimtrace")
*** Reached end of trace: (7, "/home/harshraj/COALESCE-Hashed-Perceptron-Cache-Replacement-Policy/simulator/traces/canneal_big3.champsimtrace")
*** Reached end of trace: (3, "/home/harshraj/COALESCE-Hashed-Perceptron-Cache-Replacement-Policy/simulator/traces/canneal_big3.champsimtrace")
*** Reached end of trace: (2, "/home/harshraj/COALESCE-Hashed-Perceptron-Cache-Replacement-Policy/simulator/traces/canneal_big2.champsimtrace")
*** Reached end of trace: (6, "/home/harshraj/COALESCE-Hashed-Perceptron-Cache-Replacement-Policy/simulator/traces/canneal_big2.champsimtrace")
*** Reached end of trace: (0, "/home/harshraj/COALESCE-Hashed-Perceptron-Cache-Replacement-Policy/simulator/traces/canneal_big0.champsimtrace")
Heartbeat CPU 0 instructions: 70000021 cycles: 27068082 heartbeat IPC: 2.6 cumulative IPC: 2.586 (Simulation time: 01 hr 01 min 47 sec)
*** Reached end of trace: (4, "/home/harshraj/COALESCE-Hashed-Perceptron-Cache-Replacement-Policy/simulator/traces/canneal_big0.champsimtrace")
Heartbeat CPU 4 instructions: 70000021 cycles: 27116361 heartbeat IPC: 2.595 cumulative IPC: 2.581 (Simulation time: 01 hr 01 min 54 sec)
*** Reached end of trace: (1, "/home/harshraj/COALESCE-Hashed-Perceptron-Cache-Replacement-Policy/simulator/traces/canneal_big1.champsimtrace")
*** Reached end of trace: (5, "/home/harshraj/COALESCE-Hashed-Perceptron-Cache-Replacement-Policy/simulator/traces/canneal_big1.champsimtrace")
*** Reached end of trace: (7, "/home/harshraj/COALESCE-Hashed-Perceptron-Cache-Replacement-Policy/simulator/traces/canneal_big3.champsimtrace")
*** Reached end of trace: (3, "/home/harshraj/COALESCE-Hashed-Perceptron-Cache-Replacement-Policy/simulator/traces/canneal_big3.champsimtrace")
Heartbeat CPU 7 instructions: 110000001 cycles: 27503656 heartbeat IPC: 4 cumulative IPC: 3.999 (Simulation time: 01 hr 02 min 51 sec)
Heartbeat CPU 3 instructions: 110000001 cycles: 27503658 heartbeat IPC: 4 cumulative IPC: 3.999 (Simulation time: 01 hr 02 min 51 sec)
*** Reached end of trace: (2, "/home/harshraj/COALESCE-Hashed-Perceptron-Cache-Replacement-Policy/simulator/traces/canneal_big2.champsimtrace")
*** Reached end of trace: (6, "/home/harshraj/COALESCE-Hashed-Perceptron-Cache-Replacement-Policy/simulator/traces/canneal_big2.champsimtrace")
Heartbeat CPU 2 instructions: 110000001 cycles: 27503808 heartbeat IPC: 4 cumulative IPC: 3.999 (Simulation time: 01 hr 02 min 51 sec)
Heartbeat CPU 6 instructions: 110000001 cycles: 27503811 heartbeat IPC: 4 cumulative IPC: 3.999 (Simulation time: 01 hr 02 min 51 sec)
*** Reached end of trace: (7, "/home/harshraj/COALESCE-Hashed-Perceptron-Cache-Replacement-Policy/simulator/traces/canneal_big3.champsimtrace")
*** Reached end of trace: (3, "/home/harshraj/COALESCE-Hashed-Perceptron-Cache-Replacement-Policy/simulator/traces/canneal_big3.champsimtrace")
*** Reached end of trace: (2, "/home/harshraj/COALESCE-Hashed-Perceptron-Cache-Replacement-Policy/simulator/traces/canneal_big2.champsimtrace")
*** Reached end of trace: (6, "/home/harshraj/COALESCE-Hashed-Perceptron-Cache-Replacement-Policy/simulator/traces/canneal_big2.champsimtrace")
*** Reached end of trace: (0, "/home/harshraj/COALESCE-Hashed-Perceptron-Cache-Replacement-Policy/simulator/traces/canneal_big0.champsimtrace")
*** Reached end of trace: (4, "/home/harshraj/COALESCE-Hashed-Perceptron-Cache-Replacement-Policy/simulator/traces/canneal_big0.champsimtrace")
*** Reached end of trace: (7, "/home/harshraj/COALESCE-Hashed-Perceptron-Cache-Replacement-Policy/simulator/traces/canneal_big3.champsimtrace")
*** Reached end of trace: (3, "/home/harshraj/COALESCE-Hashed-Perceptron-Cache-Replacement-Policy/simulator/traces/canneal_big3.champsimtrace")
Heartbeat CPU 7 instructions: 120000001 cycles: 30003656 heartbeat IPC: 4 cumulative IPC: 4 (Simulation time: 01 hr 08 min 34 sec)
Heartbeat CPU 3 instructions: 120000001 cycles: 30003658 heartbeat IPC: 4 cumulative IPC: 4 (Simulation time: 01 hr 08 min 34 sec)
*** Reached end of trace: (2, "/home/harshraj/COALESCE-Hashed-Perceptron-Cache-Replacement-Policy/simulator/traces/canneal_big2.champsimtrace")
*** Reached end of trace: (6, "/home/harshraj/COALESCE-Hashed-Perceptron-Cache-Replacement-Policy/simulator/traces/canneal_big2.champsimtrace")
Heartbeat CPU 2 instructions: 120000001 cycles: 30003808 heartbeat IPC: 4 cumulative IPC: 3.999 (Simulation time: 01 hr 08 min 34 sec)
Heartbeat CPU 6 instructions: 120000001 cycles: 30003811 heartbeat IPC: 4 cumulative IPC: 3.999 (Simulation time: 01 hr 08 min 34 sec)
*** Reached end of trace: (1, "/home/harshraj/COALESCE-Hashed-Perceptron-Cache-Replacement-Policy/simulator/traces/canneal_big1.champsimtrace")
Warmup finished CPU 1 instructions: 50000000 cycles: 30037839 cumulative IPC: 1.665 (Simulation time: 01 hr 08 min 39 sec)
Heartbeat CPU 1 instructions: 50000008 cycles: 30037862 heartbeat IPC: 1.759 cumulative IPC: 1.665 (Simulation time: 01 hr 08 min 39 sec)
*** Reached end of trace: (5, "/home/harshraj/COALESCE-Hashed-Perceptron-Cache-Replacement-Policy/simulator/traces/canneal_big1.champsimtrace")
Warmup finished CPU 5 instructions: 50000000 cycles: 30072994 cumulative IPC: 1.663 (Simulation time: 01 hr 08 min 44 sec)
Warmup complete CPU 7 instructions: 120277353 cycles: 30072994 cumulative IPC: 4 (Simulation time: 01 hr 08 min 44 sec)
Warmup complete CPU 6 instructions: 120276733 cycles: 30072994 cumulative IPC: 3.999 (Simulation time: 01 hr 08 min 44 sec)
Warmup complete CPU 5 instructions: 50000000 cycles: 30072994 cumulative IPC: 1.663 (Simulation time: 01 hr 08 min 44 sec)
Warmup complete CPU 4 instructions: 77837599 cycles: 30072994 cumulative IPC: 2.588 (Simulation time: 01 hr 08 min 44 sec)
Warmup complete CPU 3 instructions: 120277345 cycles: 30072994 cumulative IPC: 4 (Simulation time: 01 hr 08 min 44 sec)
Warmup complete CPU 2 instructions: 120276745 cycles: 30072994 cumulative IPC: 3.999 (Simulation time: 01 hr 08 min 44 sec)
Warmup complete CPU 1 instructions: 50058690 cycles: 30072994 cumulative IPC: 1.665 (Simulation time: 01 hr 08 min 44 sec)
Warmup complete CPU 0 instructions: 77967889 cycles: 30072994 cumulative IPC: 2.593 (Simulation time: 01 hr 08 min 44 sec)
Heartbeat CPU 5 instructions: 50000008 cycles: 30073505 heartbeat IPC: 1.754 cumulative IPC: 0.01566 (Simulation time: 01 hr 08 min 44 sec)
*** Reached end of trace: (0, "/home/harshraj/COALESCE-Hashed-Perceptron-Cache-Replacement-Policy/simulator/traces/canneal_big0.champsimtrace")
Heartbeat CPU 0 instructions: 80000021 cycles: 30857890 heartbeat IPC: 2.639 cumulative IPC: 2.589 (Simulation time: 01 hr 10 min 32 sec)
*** Reached end of trace: (4, "/home/harshraj/COALESCE-Hashed-Perceptron-Cache-Replacement-Policy/simulator/traces/canneal_big0.champsimtrace")
Heartbeat CPU 4 instructions: 80000021 cycles: 30910914 heartbeat IPC: 2.635 cumulative IPC: 2.581 (Simulation time: 01 hr 10 min 39 sec)
*** Reached end of trace: (7, "/home/harshraj/COALESCE-Hashed-Perceptron-Cache-Replacement-Policy/simulator/traces/canneal_big3.champsimtrace")
*** Reached end of trace: (3, "/home/harshraj/COALESCE-Hashed-Perceptron-Cache-Replacement-Policy/simulator/traces/canneal_big3.champsimtrace")
*** Reached end of trace: (2, "/home/harshraj/COALESCE-Hashed-Perceptron-Cache-Replacement-Policy/simulator/traces/canneal_big2.champsimtrace")
*** Reached end of trace: (6, "/home/harshraj/COALESCE-Hashed-Perceptron-Cache-Replacement-Policy/simulator/traces/canneal_big2.champsimtrace")
*** Reached end of trace: (7, "/home/harshraj/COALESCE-Hashed-Perceptron-Cache-Replacement-Policy/simulator/traces/canneal_big3.champsimtrace")
*** Reached end of trace: (3, "/home/harshraj/COALESCE-Hashed-Perceptron-Cache-Replacement-Policy/simulator/traces/canneal_big3.champsimtrace")
Heartbeat CPU 7 instructions: 130000001 cycles: 32503656 heartbeat IPC: 4 cumulative IPC: 4 (Simulation time: 01 hr 14 min 17 sec)
Heartbeat CPU 3 instructions: 130000001 cycles: 32503658 heartbeat IPC: 4 cumulative IPC: 4 (Simulation time: 01 hr 14 min 17 sec)
*** Reached end of trace: (2, "/home/harshraj/COALESCE-Hashed-Perceptron-Cache-Replacement-Policy/simulator/traces/canneal_big2.champsimtrace")
*** Reached end of trace: (6, "/home/harshraj/COALESCE-Hashed-Perceptron-Cache-Replacement-Policy/simulator/traces/canneal_big2.champsimtrace")
Heartbeat CPU 2 instructions: 130000001 cycles: 32503808 heartbeat IPC: 4 cumulative IPC: 4 (Simulation time: 01 hr 14 min 17 sec)
Heartbeat CPU 6 instructions: 130000001 cycles: 32503811 heartbeat IPC: 4 cumulative IPC: 4 (Simulation time: 01 hr 14 min 17 sec)
*** Reached end of trace: (0, "/home/harshraj/COALESCE-Hashed-Perceptron-Cache-Replacement-Policy/simulator/traces/canneal_big0.champsimtrace")
*** Reached end of trace: (4, "/home/harshraj/COALESCE-Hashed-Perceptron-Cache-Replacement-Policy/simulator/traces/canneal_big0.champsimtrace")
*** Reached end of trace: (7, "/home/harshraj/COALESCE-Hashed-Perceptron-Cache-Replacement-Policy/simulator/traces/canneal_big3.champsimtrace")
*** Reached end of trace: (3, "/home/harshraj/COALESCE-Hashed-Perceptron-Cache-Replacement-Policy/simulator/traces/canneal_big3.champsimtrace")
*** Reached end of trace: (2, "/home/harshraj/COALESCE-Hashed-Perceptron-Cache-Replacement-Policy/simulator/traces/canneal_big2.champsimtrace")
*** Reached end of trace: (6, "/home/harshraj/COALESCE-Hashed-Perceptron-Cache-Replacement-Policy/simulator/traces/canneal_big2.champsimtrace")
*** Reached end of trace: (7, "/home/harshraj/COALESCE-Hashed-Perceptron-Cache-Replacement-Policy/simulator/traces/canneal_big3.champsimtrace")
*** Reached end of trace: (3, "/home/harshraj/COALESCE-Hashed-Perceptron-Cache-Replacement-Policy/simulator/traces/canneal_big3.champsimtrace")
Heartbeat CPU 7 instructions: 140000001 cycles: 35003656 heartbeat IPC: 4 cumulative IPC: 4 (Simulation time: 01 hr 19 min 59 sec)
Heartbeat CPU 3 instructions: 140000001 cycles: 35003658 heartbeat IPC: 4 cumulative IPC: 4 (Simulation time: 01 hr 19 min 59 sec)
*** Reached end of trace: (2, "/home/harshraj/COALESCE-Hashed-Perceptron-Cache-Replacement-Policy/simulator/traces/canneal_big2.champsimtrace")
*** Reached end of trace: (6, "/home/harshraj/COALESCE-Hashed-Perceptron-Cache-Replacement-Policy/simulator/traces/canneal_big2.champsimtrace")
Heartbeat CPU 2 instructions: 140000001 cycles: 35003808 heartbeat IPC: 4 cumulative IPC: 4 (Simulation time: 01 hr 19 min 59 sec)
Heartbeat CPU 6 instructions: 140000001 cycles: 35003811 heartbeat IPC: 4 cumulative IPC: 4 (Simulation time: 01 hr 19 min 59 sec)
*** Reached end of trace: (0, "/home/harshraj/COALESCE-Hashed-Perceptron-Cache-Replacement-Policy/simulator/traces/canneal_big0.champsimtrace")
Heartbeat CPU 0 instructions: 90000022 cycles: 35313548 heartbeat IPC: 2.244 cumulative IPC: 2.296 (Simulation time: 01 hr 20 min 42 sec)
*** Reached end of trace: (4, "/home/harshraj/COALESCE-Hashed-Perceptron-Cache-Replacement-Policy/simulator/traces/canneal_big0.champsimtrace")
Heartbeat CPU 4 instructions: 90000024 cycles: 35328379 heartbeat IPC: 2.264 cumulative IPC: 2.314 (Simulation time: 01 hr 20 min 44 sec)
*** Reached end of trace: (7, "/home/harshraj/COALESCE-Hashed-Perceptron-Cache-Replacement-Policy/simulator/traces/canneal_big3.champsimtrace")
*** Reached end of trace: (3, "/home/harshraj/COALESCE-Hashed-Perceptron-Cache-Replacement-Policy/simulator/traces/canneal_big3.champsimtrace")
*** Reached end of trace: (2, "/home/harshraj/COALESCE-Hashed-Perceptron-Cache-Replacement-Policy/simulator/traces/canneal_big2.champsimtrace")
*** Reached end of trace: (6, "/home/harshraj/COALESCE-Hashed-Perceptron-Cache-Replacement-Policy/simulator/traces/canneal_big2.champsimtrace")
*** Reached end of trace: (0, "/home/harshraj/COALESCE-Hashed-Perceptron-Cache-Replacement-Policy/simulator/traces/canneal_big0.champsimtrace")
*** Reached end of trace: (7, "/home/harshraj/COALESCE-Hashed-Perceptron-Cache-Replacement-Policy/simulator/traces/canneal_big3.champsimtrace")
*** Reached end of trace: (3, "/home/harshraj/COALESCE-Hashed-Perceptron-Cache-Replacement-Policy/simulator/traces/canneal_big3.champsimtrace")
Heartbeat CPU 7 instructions: 150000001 cycles: 37503656 heartbeat IPC: 4 cumulative IPC: 4 (Simulation time: 01 hr 25 min 41 sec)
Heartbeat CPU 3 instructions: 150000001 cycles: 37503658 heartbeat IPC: 4 cumulative IPC: 4 (Simulation time: 01 hr 25 min 41 sec)
*** Reached end of trace: (2, "/home/harshraj/COALESCE-Hashed-Perceptron-Cache-Replacement-Policy/simulator/traces/canneal_big2.champsimtrace")
*** Reached end of trace: (6, "/home/harshraj/COALESCE-Hashed-Perceptron-Cache-Replacement-Policy/simulator/traces/canneal_big2.champsimtrace")
Heartbeat CPU 2 instructions: 150000001 cycles: 37503808 heartbeat IPC: 4 cumulative IPC: 4 (Simulation time: 01 hr 25 min 41 sec)
Heartbeat CPU 6 instructions: 150000001 cycles: 37503811 heartbeat IPC: 4 cumulative IPC: 4 (Simulation time: 01 hr 25 min 41 sec)
*** Reached end of trace: (4, "/home/harshraj/COALESCE-Hashed-Perceptron-Cache-Replacement-Policy/simulator/traces/canneal_big0.champsimtrace")
*** Reached end of trace: (7, "/home/harshraj/COALESCE-Hashed-Perceptron-Cache-Replacement-Policy/simulator/traces/canneal_big3.champsimtrace")
*** Reached end of trace: (3, "/home/harshraj/COALESCE-Hashed-Perceptron-Cache-Replacement-Policy/simulator/traces/canneal_big3.champsimtrace")
*** Reached end of trace: (2, "/home/harshraj/COALESCE-Hashed-Perceptron-Cache-Replacement-Policy/simulator/traces/canneal_big2.champsimtrace")
*** Reached end of trace: (6, "/home/harshraj/COALESCE-Hashed-Perceptron-Cache-Replacement-Policy/simulator/traces/canneal_big2.champsimtrace")
*** Reached end of trace: (0, "/home/harshraj/COALESCE-Hashed-Perceptron-Cache-Replacement-Policy/simulator/traces/canneal_big0.champsimtrace")
Heartbeat CPU 0 instructions: 100000025 cycles: 39695879 heartbeat IPC: 2.282 cumulative IPC: 2.29 (Simulation time: 01 hr 30 min 41 sec)
*** Reached end of trace: (4, "/home/harshraj/COALESCE-Hashed-Perceptron-Cache-Replacement-Policy/simulator/traces/canneal_big0.champsimtrace")
Heartbeat CPU 4 instructions: 100000025 cycles: 39712697 heartbeat IPC: 2.281 cumulative IPC: 2.299 (Simulation time: 01 hr 30 min 43 sec)
*** Reached end of trace: (7, "/home/harshraj/COALESCE-Hashed-Perceptron-Cache-Replacement-Policy/simulator/traces/canneal_big3.champsimtrace")
*** Reached end of trace: (3, "/home/harshraj/COALESCE-Hashed-Perceptron-Cache-Replacement-Policy/simulator/traces/canneal_big3.champsimtrace")
Heartbeat CPU 7 instructions: 160000001 cycles: 40003656 heartbeat IPC: 4 cumulative IPC: 4 (Simulation time: 01 hr 31 min 24 sec)
Heartbeat CPU 3 instructions: 160000001 cycles: 40003658 heartbeat IPC: 4 cumulative IPC: 4 (Simulation time: 01 hr 31 min 24 sec)
*** Reached end of trace: (2, "/home/harshraj/COALESCE-Hashed-Perceptron-Cache-Replacement-Policy/simulator/traces/canneal_big2.champsimtrace")
*** Reached end of trace: (6, "/home/harshraj/COALESCE-Hashed-Perceptron-Cache-Replacement-Policy/simulator/traces/canneal_big2.champsimtrace")
Heartbeat CPU 2 instructions: 160000001 cycles: 40003808 heartbeat IPC: 4 cumulative IPC: 4 (Simulation time: 01 hr 31 min 24 sec)
Heartbeat CPU 6 instructions: 160000001 cycles: 40003811 heartbeat IPC: 4 cumulative IPC: 4 (Simulation time: 01 hr 31 min 24 sec)
*** Reached end of trace: (7, "/home/harshraj/COALESCE-Hashed-Perceptron-Cache-Replacement-Policy/simulator/traces/canneal_big3.champsimtrace")
*** Reached end of trace: (3, "/home/harshraj/COALESCE-Hashed-Perceptron-Cache-Replacement-Policy/simulator/traces/canneal_big3.champsimtrace")
*** Reached end of trace: (2, "/home/harshraj/COALESCE-Hashed-Perceptron-Cache-Replacement-Policy/simulator/traces/canneal_big2.champsimtrace")
*** Reached end of trace: (6, "/home/harshraj/COALESCE-Hashed-Perceptron-Cache-Replacement-Policy/simulator/traces/canneal_big2.champsimtrace")
*** Reached end of trace: (0, "/home/harshraj/COALESCE-Hashed-Perceptron-Cache-Replacement-Policy/simulator/traces/canneal_big0.champsimtrace")
*** Reached end of trace: (4, "/home/harshraj/COALESCE-Hashed-Perceptron-Cache-Replacement-Policy/simulator/traces/canneal_big0.champsimtrace")
*** Reached end of trace: (7, "/home/harshraj/COALESCE-Hashed-Perceptron-Cache-Replacement-Policy/simulator/traces/canneal_big3.champsimtrace")
*** Reached end of trace: (3, "/home/harshraj/COALESCE-Hashed-Perceptron-Cache-Replacement-Policy/simulator/traces/canneal_big3.champsimtrace")
Heartbeat CPU 7 instructions: 170000001 cycles: 42503656 heartbeat IPC: 4 cumulative IPC: 4 (Simulation time: 01 hr 37 min 58 sec)
Heartbeat CPU 3 instructions: 170000001 cycles: 42503658 heartbeat IPC: 4 cumulative IPC: 4 (Simulation time: 01 hr 37 min 58 sec)
*** Reached end of trace: (2, "/home/harshraj/COALESCE-Hashed-Perceptron-Cache-Replacement-Policy/simulator/traces/canneal_big2.champsimtrace")
*** Reached end of trace: (6, "/home/harshraj/COALESCE-Hashed-Perceptron-Cache-Replacement-Policy/simulator/traces/canneal_big2.champsimtrace")
Heartbeat CPU 2 instructions: 170000001 cycles: 42503808 heartbeat IPC: 4 cumulative IPC: 4 (Simulation time: 01 hr 37 min 58 sec)
Heartbeat CPU 6 instructions: 170000001 cycles: 42503811 heartbeat IPC: 4 cumulative IPC: 4 (Simulation time: 01 hr 37 min 58 sec)
*** Reached end of trace: (7, "/home/harshraj/COALESCE-Hashed-Perceptron-Cache-Replacement-Policy/simulator/traces/canneal_big3.champsimtrace")
*** Reached end of trace: (3, "/home/harshraj/COALESCE-Hashed-Perceptron-Cache-Replacement-Policy/simulator/traces/canneal_big3.champsimtrace")
*** Reached end of trace: (2, "/home/harshraj/COALESCE-Hashed-Perceptron-Cache-Replacement-Policy/simulator/traces/canneal_big2.champsimtrace")
*** Reached end of trace: (6, "/home/harshraj/COALESCE-Hashed-Perceptron-Cache-Replacement-Policy/simulator/traces/canneal_big2.champsimtrace")
*** Reached end of trace: (0, "/home/harshraj/COALESCE-Hashed-Perceptron-Cache-Replacement-Policy/simulator/traces/canneal_big0.champsimtrace")
Heartbeat CPU 0 instructions: 110000028 cycles: 44062427 heartbeat IPC: 2.29 cumulative IPC: 2.29 (Simulation time: 01 hr 43 min 00 sec)
*** Reached end of trace: (4, "/home/harshraj/COALESCE-Hashed-Perceptron-Cache-Replacement-Policy/simulator/traces/canneal_big0.champsimtrace")
Heartbeat CPU 4 instructions: 110000028 cycles: 44080283 heartbeat IPC: 2.29 cumulative IPC: 2.296 (Simulation time: 01 hr 43 min 03 sec)
*** Reached end of trace: (7, "/home/harshraj/COALESCE-Hashed-Perceptron-Cache-Replacement-Policy/simulator/traces/canneal_big3.champsimtrace")
*** Reached end of trace: (3, "/home/harshraj/COALESCE-Hashed-Perceptron-Cache-Replacement-Policy/simulator/traces/canneal_big3.champsimtrace")
Heartbeat CPU 7 instructions: 180000001 cycles: 45003656 heartbeat IPC: 4 cumulative IPC: 4 (Simulation time: 01 hr 46 min 02 sec)
Heartbeat CPU 3 instructions: 180000001 cycles: 45003658 heartbeat IPC: 4 cumulative IPC: 4 (Simulation time: 01 hr 46 min 02 sec)
*** Reached end of trace: (2, "/home/harshraj/COALESCE-Hashed-Perceptron-Cache-Replacement-Policy/simulator/traces/canneal_big2.champsimtrace")
*** Reached end of trace: (6, "/home/harshraj/COALESCE-Hashed-Perceptron-Cache-Replacement-Policy/simulator/traces/canneal_big2.champsimtrace")
Heartbeat CPU 2 instructions: 180000001 cycles: 45003808 heartbeat IPC: 4 cumulative IPC: 4 (Simulation time: 01 hr 46 min 02 sec)
Heartbeat CPU 6 instructions: 180000001 cycles: 45003811 heartbeat IPC: 4 cumulative IPC: 4 (Simulation time: 01 hr 46 min 02 sec)
*** Reached end of trace: (5, "/home/harshraj/COALESCE-Hashed-Perceptron-Cache-Replacement-Policy/simulator/traces/canneal_big1.champsimtrace")
*** Reached end of trace: (1, "/home/harshraj/COALESCE-Hashed-Perceptron-Cache-Replacement-Policy/simulator/traces/canneal_big1.champsimtrace")
*** Reached end of trace: (0, "/home/harshraj/COALESCE-Hashed-Perceptron-Cache-Replacement-Policy/simulator/traces/canneal_big0.champsimtrace")
*** Reached end of trace: (7, "/home/harshraj/COALESCE-Hashed-Perceptron-Cache-Replacement-Policy/simulator/traces/canneal_big3.champsimtrace")
*** Reached end of trace: (3, "/home/harshraj/COALESCE-Hashed-Perceptron-Cache-Replacement-Policy/simulator/traces/canneal_big3.champsimtrace")
*** Reached end of trace: (2, "/home/harshraj/COALESCE-Hashed-Perceptron-Cache-Replacement-Policy/simulator/traces/canneal_big2.champsimtrace")
*** Reached end of trace: (6, "/home/harshraj/COALESCE-Hashed-Perceptron-Cache-Replacement-Policy/simulator/traces/canneal_big2.champsimtrace")
*** Reached end of trace: (4, "/home/harshraj/COALESCE-Hashed-Perceptron-Cache-Replacement-Policy/simulator/traces/canneal_big0.champsimtrace")
*** Reached end of trace: (7, "/home/harshraj/COALESCE-Hashed-Perceptron-Cache-Replacement-Policy/simulator/traces/canneal_big3.champsimtrace")
*** Reached end of trace: (3, "/home/harshraj/COALESCE-Hashed-Perceptron-Cache-Replacement-Policy/simulator/traces/canneal_big3.champsimtrace")
Heartbeat CPU 7 instructions: 190000001 cycles: 47503656 heartbeat IPC: 4 cumulative IPC: 4 (Simulation time: 01 hr 52 min 35 sec)
Heartbeat CPU 3 instructions: 190000001 cycles: 47503658 heartbeat IPC: 4 cumulative IPC: 4 (Simulation time: 01 hr 52 min 35 sec)
*** Reached end of trace: (2, "/home/harshraj/COALESCE-Hashed-Perceptron-Cache-Replacement-Policy/simulator/traces/canneal_big2.champsimtrace")
*** Reached end of trace: (6, "/home/harshraj/COALESCE-Hashed-Perceptron-Cache-Replacement-Policy/simulator/traces/canneal_big2.champsimtrace")
Heartbeat CPU 2 instructions: 190000001 cycles: 47503808 heartbeat IPC: 4 cumulative IPC: 4 (Simulation time: 01 hr 52 min 35 sec)
Heartbeat CPU 6 instructions: 190000001 cycles: 47503811 heartbeat IPC: 4 cumulative IPC: 4 (Simulation time: 01 hr 52 min 35 sec)
*** Reached end of trace: (0, "/home/harshraj/COALESCE-Hashed-Perceptron-Cache-Replacement-Policy/simulator/traces/canneal_big0.champsimtrace")
Heartbeat CPU 0 instructions: 120000031 cycles: 48426821 heartbeat IPC: 2.291 cumulative IPC: 2.29 (Simulation time: 01 hr 55 min 21 sec)
*** Reached end of trace: (4, "/home/harshraj/COALESCE-Hashed-Perceptron-Cache-Replacement-Policy/simulator/traces/canneal_big0.champsimtrace")
Heartbeat CPU 4 instructions: 120000031 cycles: 48445093 heartbeat IPC: 2.291 cumulative IPC: 2.295 (Simulation time: 01 hr 55 min 24 sec)
*** Reached end of trace: (7, "/home/harshraj/COALESCE-Hashed-Perceptron-Cache-Replacement-Policy/simulator/traces/canneal_big3.champsimtrace")
*** Reached end of trace: (3, "/home/harshraj/COALESCE-Hashed-Perceptron-Cache-Replacement-Policy/simulator/traces/canneal_big3.champsimtrace")
*** Reached end of trace: (2, "/home/harshraj/COALESCE-Hashed-Perceptron-Cache-Replacement-Policy/simulator/traces/canneal_big2.champsimtrace")
*** Reached end of trace: (6, "/home/harshraj/COALESCE-Hashed-Perceptron-Cache-Replacement-Policy/simulator/traces/canneal_big2.champsimtrace")
*** Reached end of trace: (7, "/home/harshraj/COALESCE-Hashed-Perceptron-Cache-Replacement-Policy/simulator/traces/canneal_big3.champsimtrace")
*** Reached end of trace: (3, "/home/harshraj/COALESCE-Hashed-Perceptron-Cache-Replacement-Policy/simulator/traces/canneal_big3.champsimtrace")
Heartbeat CPU 7 instructions: 200000001 cycles: 50003656 heartbeat IPC: 4 cumulative IPC: 4 (Simulation time: 01 hr 59 min 15 sec)
Heartbeat CPU 3 instructions: 200000001 cycles: 50003658 heartbeat IPC: 4 cumulative IPC: 4 (Simulation time: 01 hr 59 min 15 sec)
*** Reached end of trace: (2, "/home/harshraj/COALESCE-Hashed-Perceptron-Cache-Replacement-Policy/simulator/traces/canneal_big2.champsimtrace")
*** Reached end of trace: (6, "/home/harshraj/COALESCE-Hashed-Perceptron-Cache-Replacement-Policy/simulator/traces/canneal_big2.champsimtrace")
Heartbeat CPU 2 instructions: 200000001 cycles: 50003808 heartbeat IPC: 4 cumulative IPC: 4 (Simulation time: 01 hr 59 min 15 sec)
Heartbeat CPU 6 instructions: 200000001 cycles: 50003811 heartbeat IPC: 4 cumulative IPC: 4 (Simulation time: 01 hr 59 min 15 sec)
*** Reached end of trace: (0, "/home/harshraj/COALESCE-Hashed-Perceptron-Cache-Replacement-Policy/simulator/traces/canneal_big0.champsimtrace")
*** Reached end of trace: (4, "/home/harshraj/COALESCE-Hashed-Perceptron-Cache-Replacement-Policy/simulator/traces/canneal_big0.champsimtrace")
*** Reached end of trace: (7, "/home/harshraj/COALESCE-Hashed-Perceptron-Cache-Replacement-Policy/simulator/traces/canneal_big3.champsimtrace")
*** Reached end of trace: (3, "/home/harshraj/COALESCE-Hashed-Perceptron-Cache-Replacement-Policy/simulator/traces/canneal_big3.champsimtrace")
*** Reached end of trace: (2, "/home/harshraj/COALESCE-Hashed-Perceptron-Cache-Replacement-Policy/simulator/traces/canneal_big2.champsimtrace")
*** Reached end of trace: (6, "/home/harshraj/COALESCE-Hashed-Perceptron-Cache-Replacement-Policy/simulator/traces/canneal_big2.champsimtrace")
*** Reached end of trace: (7, "/home/harshraj/COALESCE-Hashed-Perceptron-Cache-Replacement-Policy/simulator/traces/canneal_big3.champsimtrace")
*** Reached end of trace: (3, "/home/harshraj/COALESCE-Hashed-Perceptron-Cache-Replacement-Policy/simulator/traces/canneal_big3.champsimtrace")
Heartbeat CPU 7 instructions: 210000001 cycles: 52503656 heartbeat IPC: 4 cumulative IPC: 4 (Simulation time: 02 hr 05 min 36 sec)
Heartbeat CPU 3 instructions: 210000001 cycles: 52503658 heartbeat IPC: 4 cumulative IPC: 4 (Simulation time: 02 hr 05 min 36 sec)
*** Reached end of trace: (2, "/home/harshraj/COALESCE-Hashed-Perceptron-Cache-Replacement-Policy/simulator/traces/canneal_big2.champsimtrace")
*** Reached end of trace: (6, "/home/harshraj/COALESCE-Hashed-Perceptron-Cache-Replacement-Policy/simulator/traces/canneal_big2.champsimtrace")
Heartbeat CPU 2 instructions: 210000001 cycles: 52503808 heartbeat IPC: 4 cumulative IPC: 4 (Simulation time: 02 hr 05 min 36 sec)
Heartbeat CPU 6 instructions: 210000001 cycles: 52503811 heartbeat IPC: 4 cumulative IPC: 4 (Simulation time: 02 hr 05 min 36 sec)
*** Reached end of trace: (0, "/home/harshraj/COALESCE-Hashed-Perceptron-Cache-Replacement-Policy/simulator/traces/canneal_big0.champsimtrace")
Heartbeat CPU 0 instructions: 130000034 cycles: 52805932 heartbeat IPC: 2.284 cumulative IPC: 2.289 (Simulation time: 02 hr 06 min 34 sec)
*** Reached end of trace: (4, "/home/harshraj/COALESCE-Hashed-Perceptron-Cache-Replacement-Policy/simulator/traces/canneal_big0.champsimtrace")
Heartbeat CPU 4 instructions: 130000034 cycles: 52823264 heartbeat IPC: 2.284 cumulative IPC: 2.293 (Simulation time: 02 hr 06 min 38 sec)
*** Reached end of trace: (7, "/home/harshraj/COALESCE-Hashed-Perceptron-Cache-Replacement-Policy/simulator/traces/canneal_big3.champsimtrace")
*** Reached end of trace: (3, "/home/harshraj/COALESCE-Hashed-Perceptron-Cache-Replacement-Policy/simulator/traces/canneal_big3.champsimtrace")
*** Reached end of trace: (2, "/home/harshraj/COALESCE-Hashed-Perceptron-Cache-Replacement-Policy/simulator/traces/canneal_big2.champsimtrace")
*** Reached end of trace: (6, "/home/harshraj/COALESCE-Hashed-Perceptron-Cache-Replacement-Policy/simulator/traces/canneal_big2.champsimtrace")
*** Reached end of trace: (0, "/home/harshraj/COALESCE-Hashed-Perceptron-Cache-Replacement-Policy/simulator/traces/canneal_big0.champsimtrace")
*** Reached end of trace: (7, "/home/harshraj/COALESCE-Hashed-Perceptron-Cache-Replacement-Policy/simulator/traces/canneal_big3.champsimtrace")
*** Reached end of trace: (3, "/home/harshraj/COALESCE-Hashed-Perceptron-Cache-Replacement-Policy/simulator/traces/canneal_big3.champsimtrace")
Heartbeat CPU 7 instructions: 220000001 cycles: 55003656 heartbeat IPC: 4 cumulative IPC: 4 (Simulation time: 02 hr 12 min 24 sec)
Heartbeat CPU 3 instructions: 220000001 cycles: 55003658 heartbeat IPC: 4 cumulative IPC: 4 (Simulation time: 02 hr 12 min 24 sec)
*** Reached end of trace: (2, "/home/harshraj/COALESCE-Hashed-Perceptron-Cache-Replacement-Policy/simulator/traces/canneal_big2.champsimtrace")
*** Reached end of trace: (6, "/home/harshraj/COALESCE-Hashed-Perceptron-Cache-Replacement-Policy/simulator/traces/canneal_big2.champsimtrace")
Heartbeat CPU 2 instructions: 220000001 cycles: 55003808 heartbeat IPC: 4 cumulative IPC: 4 (Simulation time: 02 hr 12 min 24 sec)
Heartbeat CPU 6 instructions: 220000001 cycles: 55003811 heartbeat IPC: 4 cumulative IPC: 4 (Simulation time: 02 hr 12 min 24 sec)
*** Reached end of trace: (4, "/home/harshraj/COALESCE-Hashed-Perceptron-Cache-Replacement-Policy/simulator/traces/canneal_big0.champsimtrace")
Simulation finished CPU 7 instructions: 100000000 cycles: 25000000 cumulative IPC: 4 (Simulation time: 02 hr 12 min 33 sec)
Simulation finished CPU 6 instructions: 100000000 cycles: 25000000 cumulative IPC: 4 (Simulation time: 02 hr 12 min 33 sec)
Simulation finished CPU 3 instructions: 100000000 cycles: 25000000 cumulative IPC: 4 (Simulation time: 02 hr 12 min 33 sec)
Simulation finished CPU 2 instructions: 100000000 cycles: 25000000 cumulative IPC: 4 (Simulation time: 02 hr 12 min 33 sec)
*** Reached end of trace: (7, "/home/harshraj/COALESCE-Hashed-Perceptron-Cache-Replacement-Policy/simulator/traces/canneal_big3.champsimtrace")
*** Reached end of trace: (3, "/home/harshraj/COALESCE-Hashed-Perceptron-Cache-Replacement-Policy/simulator/traces/canneal_big3.champsimtrace")
*** Reached end of trace: (2, "/home/harshraj/COALESCE-Hashed-Perceptron-Cache-Replacement-Policy/simulator/traces/canneal_big2.champsimtrace")
*** Reached end of trace: (6, "/home/harshraj/COALESCE-Hashed-Perceptron-Cache-Replacement-Policy/simulator/traces/canneal_big2.champsimtrace")
*** Reached end of trace: (0, "/home/harshraj/COALESCE-Hashed-Perceptron-Cache-Replacement-Policy/simulator/traces/canneal_big0.champsimtrace")
Heartbeat CPU 0 instructions: 140000037 cycles: 57179105 heartbeat IPC: 2.287 cumulative IPC: 2.288 (Simulation time: 02 hr 17 min 47 sec)
*** Reached end of trace: (4, "/home/harshraj/COALESCE-Hashed-Perceptron-Cache-Replacement-Policy/simulator/traces/canneal_big0.champsimtrace")
Heartbeat CPU 4 instructions: 140000037 cycles: 57196945 heartbeat IPC: 2.286 cumulative IPC: 2.292 (Simulation time: 02 hr 17 min 50 sec)
*** Reached end of trace: (7, "/home/harshraj/COALESCE-Hashed-Perceptron-Cache-Replacement-Policy/simulator/traces/canneal_big3.champsimtrace")
*** Reached end of trace: (3, "/home/harshraj/COALESCE-Hashed-Perceptron-Cache-Replacement-Policy/simulator/traces/canneal_big3.champsimtrace")
Heartbeat CPU 7 instructions: 230000001 cycles: 57503656 heartbeat IPC: 4 cumulative IPC: 4 (Simulation time: 02 hr 18 min 34 sec)
Heartbeat CPU 3 instructions: 230000001 cycles: 57503658 heartbeat IPC: 4 cumulative IPC: 4 (Simulation time: 02 hr 18 min 34 sec)
*** Reached end of trace: (2, "/home/harshraj/COALESCE-Hashed-Perceptron-Cache-Replacement-Policy/simulator/traces/canneal_big2.champsimtrace")
*** Reached end of trace: (6, "/home/harshraj/COALESCE-Hashed-Perceptron-Cache-Replacement-Policy/simulator/traces/canneal_big2.champsimtrace")
Heartbeat CPU 2 instructions: 230000001 cycles: 57503808 heartbeat IPC: 4 cumulative IPC: 4 (Simulation time: 02 hr 18 min 34 sec)
Heartbeat CPU 6 instructions: 230000001 cycles: 57503811 heartbeat IPC: 4 cumulative IPC: 4 (Simulation time: 02 hr 18 min 34 sec)
*** Reached end of trace: (7, "/home/harshraj/COALESCE-Hashed-Perceptron-Cache-Replacement-Policy/simulator/traces/canneal_big3.champsimtrace")
*** Reached end of trace: (3, "/home/harshraj/COALESCE-Hashed-Perceptron-Cache-Replacement-Policy/simulator/traces/canneal_big3.champsimtrace")
*** Reached end of trace: (2, "/home/harshraj/COALESCE-Hashed-Perceptron-Cache-Replacement-Policy/simulator/traces/canneal_big2.champsimtrace")
*** Reached end of trace: (6, "/home/harshraj/COALESCE-Hashed-Perceptron-Cache-Replacement-Policy/simulator/traces/canneal_big2.champsimtrace")
*** Reached end of trace: (0, "/home/harshraj/COALESCE-Hashed-Perceptron-Cache-Replacement-Policy/simulator/traces/canneal_big0.champsimtrace")
*** Reached end of trace: (4, "/home/harshraj/COALESCE-Hashed-Perceptron-Cache-Replacement-Policy/simulator/traces/canneal_big0.champsimtrace")
*** Reached end of trace: (7, "/home/harshraj/COALESCE-Hashed-Perceptron-Cache-Replacement-Policy/simulator/traces/canneal_big3.champsimtrace")
*** Reached end of trace: (3, "/home/harshraj/COALESCE-Hashed-Perceptron-Cache-Replacement-Policy/simulator/traces/canneal_big3.champsimtrace")
Heartbeat CPU 7 instructions: 240000001 cycles: 60003656 heartbeat IPC: 4 cumulative IPC: 4 (Simulation time: 02 hr 24 min 28 sec)
Heartbeat CPU 3 instructions: 240000001 cycles: 60003658 heartbeat IPC: 4 cumulative IPC: 4 (Simulation time: 02 hr 24 min 28 sec)
*** Reached end of trace: (2, "/home/harshraj/COALESCE-Hashed-Perceptron-Cache-Replacement-Policy/simulator/traces/canneal_big2.champsimtrace")
*** Reached end of trace: (6, "/home/harshraj/COALESCE-Hashed-Perceptron-Cache-Replacement-Policy/simulator/traces/canneal_big2.champsimtrace")
Heartbeat CPU 2 instructions: 240000001 cycles: 60003808 heartbeat IPC: 4 cumulative IPC: 4 (Simulation time: 02 hr 24 min 28 sec)
Heartbeat CPU 6 instructions: 240000001 cycles: 60003811 heartbeat IPC: 4 cumulative IPC: 4 (Simulation time: 02 hr 24 min 28 sec)
*** Reached end of trace: (7, "/home/harshraj/COALESCE-Hashed-Perceptron-Cache-Replacement-Policy/simulator/traces/canneal_big3.champsimtrace")
*** Reached end of trace: (3, "/home/harshraj/COALESCE-Hashed-Perceptron-Cache-Replacement-Policy/simulator/traces/canneal_big3.champsimtrace")
*** Reached end of trace: (2, "/home/harshraj/COALESCE-Hashed-Perceptron-Cache-Replacement-Policy/simulator/traces/canneal_big2.champsimtrace")
*** Reached end of trace: (6, "/home/harshraj/COALESCE-Hashed-Perceptron-Cache-Replacement-Policy/simulator/traces/canneal_big2.champsimtrace")
*** Reached end of trace: (0, "/home/harshraj/COALESCE-Hashed-Perceptron-Cache-Replacement-Policy/simulator/traces/canneal_big0.champsimtrace")
Heartbeat CPU 0 instructions: 150000040 cycles: 61541454 heartbeat IPC: 2.292 cumulative IPC: 2.289 (Simulation time: 02 hr 28 min 14 sec)
*** Reached end of trace: (4, "/home/harshraj/COALESCE-Hashed-Perceptron-Cache-Replacement-Policy/simulator/traces/canneal_big0.champsimtrace")
Heartbeat CPU 4 instructions: 150000040 cycles: 61559327 heartbeat IPC: 2.292 cumulative IPC: 2.292 (Simulation time: 02 hr 28 min 17 sec)
*** Reached end of trace: (5, "/home/harshraj/COALESCE-Hashed-Perceptron-Cache-Replacement-Policy/simulator/traces/canneal_big1.champsimtrace")
*** Reached end of trace: (1, "/home/harshraj/COALESCE-Hashed-Perceptron-Cache-Replacement-Policy/simulator/traces/canneal_big1.champsimtrace")
Heartbeat CPU 5 instructions: 60000010 cycles: 61864139 heartbeat IPC: 0.3146 cumulative IPC: 0.3146 (Simulation time: 02 hr 29 min 05 sec)
Heartbeat CPU 1 instructions: 60000010 cycles: 61864139 heartbeat IPC: 0.3142 cumulative IPC: 0.3127 (Simulation time: 02 hr 29 min 05 sec)
*** Reached end of trace: (7, "/home/harshraj/COALESCE-Hashed-Perceptron-Cache-Replacement-Policy/simulator/traces/canneal_big3.champsimtrace")
*** Reached end of trace: (3, "/home/harshraj/COALESCE-Hashed-Perceptron-Cache-Replacement-Policy/simulator/traces/canneal_big3.champsimtrace")
Heartbeat CPU 7 instructions: 250000001 cycles: 62503656 heartbeat IPC: 4 cumulative IPC: 4 (Simulation time: 02 hr 30 min 41 sec)
Heartbeat CPU 3 instructions: 250000001 cycles: 62503658 heartbeat IPC: 4 cumulative IPC: 4 (Simulation time: 02 hr 30 min 41 sec)
*** Reached end of trace: (2, "/home/harshraj/COALESCE-Hashed-Perceptron-Cache-Replacement-Policy/simulator/traces/canneal_big2.champsimtrace")
*** Reached end of trace: (6, "/home/harshraj/COALESCE-Hashed-Perceptron-Cache-Replacement-Policy/simulator/traces/canneal_big2.champsimtrace")
Heartbeat CPU 2 instructions: 250000001 cycles: 62503808 heartbeat IPC: 4 cumulative IPC: 4 (Simulation time: 02 hr 30 min 42 sec)
Heartbeat CPU 6 instructions: 250000001 cycles: 62503811 heartbeat IPC: 4 cumulative IPC: 4 (Simulation time: 02 hr 30 min 42 sec)
*** Reached end of trace: (0, "/home/harshraj/COALESCE-Hashed-Perceptron-Cache-Replacement-Policy/simulator/traces/canneal_big0.champsimtrace")
*** Reached end of trace: (4, "/home/harshraj/COALESCE-Hashed-Perceptron-Cache-Replacement-Policy/simulator/traces/canneal_big0.champsimtrace")
*** Reached end of trace: (7, "/home/harshraj/COALESCE-Hashed-Perceptron-Cache-Replacement-Policy/simulator/traces/canneal_big3.champsimtrace")
*** Reached end of trace: (3, "/home/harshraj/COALESCE-Hashed-Perceptron-Cache-Replacement-Policy/simulator/traces/canneal_big3.champsimtrace")
*** Reached end of trace: (2, "/home/harshraj/COALESCE-Hashed-Perceptron-Cache-Replacement-Policy/simulator/traces/canneal_big2.champsimtrace")
*** Reached end of trace: (6, "/home/harshraj/COALESCE-Hashed-Perceptron-Cache-Replacement-Policy/simulator/traces/canneal_big2.champsimtrace")
*** Reached end of trace: (7, "/home/harshraj/COALESCE-Hashed-Perceptron-Cache-Replacement-Policy/simulator/traces/canneal_big3.champsimtrace")
*** Reached end of trace: (3, "/home/harshraj/COALESCE-Hashed-Perceptron-Cache-Replacement-Policy/simulator/traces/canneal_big3.champsimtrace")
Heartbeat CPU 7 instructions: 260000001 cycles: 65003656 heartbeat IPC: 4 cumulative IPC: 4 (Simulation time: 02 hr 37 min 30 sec)
Heartbeat CPU 3 instructions: 260000001 cycles: 65003658 heartbeat IPC: 4 cumulative IPC: 4 (Simulation time: 02 hr 37 min 30 sec)
*** Reached end of trace: (2, "/home/harshraj/COALESCE-Hashed-Perceptron-Cache-Replacement-Policy/simulator/traces/canneal_big2.champsimtrace")
*** Reached end of trace: (6, "/home/harshraj/COALESCE-Hashed-Perceptron-Cache-Replacement-Policy/simulator/traces/canneal_big2.champsimtrace")
Heartbeat CPU 2 instructions: 260000001 cycles: 65003808 heartbeat IPC: 4 cumulative IPC: 4 (Simulation time: 02 hr 37 min 30 sec)
Heartbeat CPU 6 instructions: 260000001 cycles: 65003811 heartbeat IPC: 4 cumulative IPC: 4 (Simulation time: 02 hr 37 min 30 sec)
*** Reached end of trace: (0, "/home/harshraj/COALESCE-Hashed-Perceptron-Cache-Replacement-Policy/simulator/traces/canneal_big0.champsimtrace")
Heartbeat CPU 0 instructions: 160000043 cycles: 65910387 heartbeat IPC: 2.289 cumulative IPC: 2.289 (Simulation time: 02 hr 40 min 16 sec)
*** Reached end of trace: (4, "/home/harshraj/COALESCE-Hashed-Perceptron-Cache-Replacement-Policy/simulator/traces/canneal_big0.champsimtrace")
Heartbeat CPU 4 instructions: 160000043 cycles: 65923017 heartbeat IPC: 2.292 cumulative IPC: 2.292 (Simulation time: 02 hr 40 min 19 sec)
*** Reached end of trace: (7, "/home/harshraj/COALESCE-Hashed-Perceptron-Cache-Replacement-Policy/simulator/traces/canneal_big3.champsimtrace")
*** Reached end of trace: (3, "/home/harshraj/COALESCE-Hashed-Perceptron-Cache-Replacement-Policy/simulator/traces/canneal_big3.champsimtrace")
*** Reached end of trace: (2, "/home/harshraj/COALESCE-Hashed-Perceptron-Cache-Replacement-Policy/simulator/traces/canneal_big2.champsimtrace")
*** Reached end of trace: (6, "/home/harshraj/COALESCE-Hashed-Perceptron-Cache-Replacement-Policy/simulator/traces/canneal_big2.champsimtrace")
*** Reached end of trace: (7, "/home/harshraj/COALESCE-Hashed-Perceptron-Cache-Replacement-Policy/simulator/traces/canneal_big3.champsimtrace")
*** Reached end of trace: (3, "/home/harshraj/COALESCE-Hashed-Perceptron-Cache-Replacement-Policy/simulator/traces/canneal_big3.champsimtrace")
Heartbeat CPU 7 instructions: 270000001 cycles: 67503656 heartbeat IPC: 4 cumulative IPC: 4 (Simulation time: 02 hr 44 min 41 sec)
Heartbeat CPU 3 instructions: 270000001 cycles: 67503658 heartbeat IPC: 4 cumulative IPC: 4 (Simulation time: 02 hr 44 min 41 sec)
*** Reached end of trace: (2, "/home/harshraj/COALESCE-Hashed-Perceptron-Cache-Replacement-Policy/simulator/traces/canneal_big2.champsimtrace")
*** Reached end of trace: (6, "/home/harshraj/COALESCE-Hashed-Perceptron-Cache-Replacement-Policy/simulator/traces/canneal_big2.champsimtrace")
Heartbeat CPU 2 instructions: 270000001 cycles: 67503808 heartbeat IPC: 4 cumulative IPC: 4 (Simulation time: 02 hr 44 min 41 sec)
Heartbeat CPU 6 instructions: 270000001 cycles: 67503811 heartbeat IPC: 4 cumulative IPC: 4 (Simulation time: 02 hr 44 min 41 sec)
*** Reached end of trace: (0, "/home/harshraj/COALESCE-Hashed-Perceptron-Cache-Replacement-Policy/simulator/traces/canneal_big0.champsimtrace")
*** Reached end of trace: (4, "/home/harshraj/COALESCE-Hashed-Perceptron-Cache-Replacement-Policy/simulator/traces/canneal_big0.champsimtrace")
*** Reached end of trace: (7, "/home/harshraj/COALESCE-Hashed-Perceptron-Cache-Replacement-Policy/simulator/traces/canneal_big3.champsimtrace")
*** Reached end of trace: (3, "/home/harshraj/COALESCE-Hashed-Perceptron-Cache-Replacement-Policy/simulator/traces/canneal_big3.champsimtrace")
*** Reached end of trace: (2, "/home/harshraj/COALESCE-Hashed-Perceptron-Cache-Replacement-Policy/simulator/traces/canneal_big2.champsimtrace")
*** Reached end of trace: (6, "/home/harshraj/COALESCE-Hashed-Perceptron-Cache-Replacement-Policy/simulator/traces/canneal_big2.champsimtrace")
*** Reached end of trace: (7, "/home/harshraj/COALESCE-Hashed-Perceptron-Cache-Replacement-Policy/simulator/traces/canneal_big3.champsimtrace")
*** Reached end of trace: (3, "/home/harshraj/COALESCE-Hashed-Perceptron-Cache-Replacement-Policy/simulator/traces/canneal_big3.champsimtrace")
Heartbeat CPU 7 instructions: 280000001 cycles: 70003656 heartbeat IPC: 4 cumulative IPC: 4 (Simulation time: 02 hr 51 min 08 sec)
Heartbeat CPU 3 instructions: 280000001 cycles: 70003658 heartbeat IPC: 4 cumulative IPC: 4 (Simulation time: 02 hr 51 min 08 sec)
*** Reached end of trace: (2, "/home/harshraj/COALESCE-Hashed-Perceptron-Cache-Replacement-Policy/simulator/traces/canneal_big2.champsimtrace")
*** Reached end of trace: (6, "/home/harshraj/COALESCE-Hashed-Perceptron-Cache-Replacement-Policy/simulator/traces/canneal_big2.champsimtrace")
Heartbeat CPU 2 instructions: 280000001 cycles: 70003808 heartbeat IPC: 4 cumulative IPC: 4 (Simulation time: 02 hr 51 min 08 sec)
Heartbeat CPU 6 instructions: 280000001 cycles: 70003811 heartbeat IPC: 4 cumulative IPC: 4 (Simulation time: 02 hr 51 min 08 sec)
*** Reached end of trace: (0, "/home/harshraj/COALESCE-Hashed-Perceptron-Cache-Replacement-Policy/simulator/traces/canneal_big0.champsimtrace")
Heartbeat CPU 0 instructions: 170000046 cycles: 70267146 heartbeat IPC: 2.295 cumulative IPC: 2.29 (Simulation time: 02 hr 52 min 00 sec)
*** Reached end of trace: (4, "/home/harshraj/COALESCE-Hashed-Perceptron-Cache-Replacement-Policy/simulator/traces/canneal_big0.champsimtrace")
Heartbeat CPU 4 instructions: 170000046 cycles: 70282714 heartbeat IPC: 2.294 cumulative IPC: 2.292 (Simulation time: 02 hr 52 min 03 sec)
*** Reached end of trace: (7, "/home/harshraj/COALESCE-Hashed-Perceptron-Cache-Replacement-Policy/simulator/traces/canneal_big3.champsimtrace")
*** Reached end of trace: (3, "/home/harshraj/COALESCE-Hashed-Perceptron-Cache-Replacement-Policy/simulator/traces/canneal_big3.champsimtrace")
*** Reached end of trace: (2, "/home/harshraj/COALESCE-Hashed-Perceptron-Cache-Replacement-Policy/simulator/traces/canneal_big2.champsimtrace")
*** Reached end of trace: (6, "/home/harshraj/COALESCE-Hashed-Perceptron-Cache-Replacement-Policy/simulator/traces/canneal_big2.champsimtrace")
*** Reached end of trace: (0, "/home/harshraj/COALESCE-Hashed-Perceptron-Cache-Replacement-Policy/simulator/traces/canneal_big0.champsimtrace")
*** Reached end of trace: (4, "/home/harshraj/COALESCE-Hashed-Perceptron-Cache-Replacement-Policy/simulator/traces/canneal_big0.champsimtrace")
*** Reached end of trace: (7, "/home/harshraj/COALESCE-Hashed-Perceptron-Cache-Replacement-Policy/simulator/traces/canneal_big3.champsimtrace")
*** Reached end of trace: (3, "/home/harshraj/COALESCE-Hashed-Perceptron-Cache-Replacement-Policy/simulator/traces/canneal_big3.champsimtrace")
Heartbeat CPU 7 instructions: 290000001 cycles: 72503656 heartbeat IPC: 4 cumulative IPC: 4 (Simulation time: 02 hr 58 min 16 sec)
Heartbeat CPU 3 instructions: 290000001 cycles: 72503658 heartbeat IPC: 4 cumulative IPC: 4 (Simulation time: 02 hr 58 min 16 sec)
*** Reached end of trace: (2, "/home/harshraj/COALESCE-Hashed-Perceptron-Cache-Replacement-Policy/simulator/traces/canneal_big2.champsimtrace")
*** Reached end of trace: (6, "/home/harshraj/COALESCE-Hashed-Perceptron-Cache-Replacement-Policy/simulator/traces/canneal_big2.champsimtrace")
Heartbeat CPU 2 instructions: 290000001 cycles: 72503808 heartbeat IPC: 4 cumulative IPC: 4 (Simulation time: 02 hr 58 min 16 sec)
Heartbeat CPU 6 instructions: 290000001 cycles: 72503811 heartbeat IPC: 4 cumulative IPC: 4 (Simulation time: 02 hr 58 min 16 sec)
*** Reached end of trace: (7, "/home/harshraj/COALESCE-Hashed-Perceptron-Cache-Replacement-Policy/simulator/traces/canneal_big3.champsimtrace")
*** Reached end of trace: (3, "/home/harshraj/COALESCE-Hashed-Perceptron-Cache-Replacement-Policy/simulator/traces/canneal_big3.champsimtrace")
*** Reached end of trace: (2, "/home/harshraj/COALESCE-Hashed-Perceptron-Cache-Replacement-Policy/simulator/traces/canneal_big2.champsimtrace")
*** Reached end of trace: (6, "/home/harshraj/COALESCE-Hashed-Perceptron-Cache-Replacement-Policy/simulator/traces/canneal_big2.champsimtrace")
Simulation finished CPU 4 instructions: 100000000 cycles: 43752256 cumulative IPC: 2.286 (Simulation time: 03 hr 01 min 25 sec)
Simulation finished CPU 0 instructions: 100000000 cycles: 43788403 cumulative IPC: 2.284 (Simulation time: 03 hr 01 min 31 sec)
*** Reached end of trace: (0, "/home/harshraj/COALESCE-Hashed-Perceptron-Cache-Replacement-Policy/simulator/traces/canneal_big0.champsimtrace")
Heartbeat CPU 0 instructions: 180000046 cycles: 74624165 heartbeat IPC: 2.295 cumulative IPC: 2.29 (Simulation time: 03 hr 04 min 03 sec)
*** Reached end of trace: (4, "/home/harshraj/COALESCE-Hashed-Perceptron-Cache-Replacement-Policy/simulator/traces/canneal_big0.champsimtrace")
Heartbeat CPU 4 instructions: 180000049 cycles: 74643591 heartbeat IPC: 2.293 cumulative IPC: 2.292 (Simulation time: 03 hr 04 min 07 sec)
*** Reached end of trace: (7, "/home/harshraj/COALESCE-Hashed-Perceptron-Cache-Replacement-Policy/simulator/traces/canneal_big3.champsimtrace")
*** Reached end of trace: (3, "/home/harshraj/COALESCE-Hashed-Perceptron-Cache-Replacement-Policy/simulator/traces/canneal_big3.champsimtrace")
Heartbeat CPU 7 instructions: 300000001 cycles: 75003656 heartbeat IPC: 4 cumulative IPC: 4 (Simulation time: 03 hr 05 min 22 sec)
Heartbeat CPU 3 instructions: 300000001 cycles: 75003658 heartbeat IPC: 4 cumulative IPC: 4 (Simulation time: 03 hr 05 min 22 sec)
*** Reached end of trace: (2, "/home/harshraj/COALESCE-Hashed-Perceptron-Cache-Replacement-Policy/simulator/traces/canneal_big2.champsimtrace")
*** Reached end of trace: (6, "/home/harshraj/COALESCE-Hashed-Perceptron-Cache-Replacement-Policy/simulator/traces/canneal_big2.champsimtrace")
Heartbeat CPU 2 instructions: 300000001 cycles: 75003808 heartbeat IPC: 4 cumulative IPC: 4 (Simulation time: 03 hr 05 min 22 sec)
Heartbeat CPU 6 instructions: 300000001 cycles: 75003811 heartbeat IPC: 4 cumulative IPC: 4 (Simulation time: 03 hr 05 min 22 sec)
*** Reached end of trace: (7, "/home/harshraj/COALESCE-Hashed-Perceptron-Cache-Replacement-Policy/simulator/traces/canneal_big3.champsimtrace")
*** Reached end of trace: (3, "/home/harshraj/COALESCE-Hashed-Perceptron-Cache-Replacement-Policy/simulator/traces/canneal_big3.champsimtrace")
*** Reached end of trace: (2, "/home/harshraj/COALESCE-Hashed-Perceptron-Cache-Replacement-Policy/simulator/traces/canneal_big2.champsimtrace")
*** Reached end of trace: (6, "/home/harshraj/COALESCE-Hashed-Perceptron-Cache-Replacement-Policy/simulator/traces/canneal_big2.champsimtrace")
*** Reached end of trace: (0, "/home/harshraj/COALESCE-Hashed-Perceptron-Cache-Replacement-Policy/simulator/traces/canneal_big0.champsimtrace")
*** Reached end of trace: (4, "/home/harshraj/COALESCE-Hashed-Perceptron-Cache-Replacement-Policy/simulator/traces/canneal_big0.champsimtrace")
*** Reached end of trace: (7, "/home/harshraj/COALESCE-Hashed-Perceptron-Cache-Replacement-Policy/simulator/traces/canneal_big3.champsimtrace")
*** Reached end of trace: (3, "/home/harshraj/COALESCE-Hashed-Perceptron-Cache-Replacement-Policy/simulator/traces/canneal_big3.champsimtrace")
Heartbeat CPU 7 instructions: 310000001 cycles: 77503656 heartbeat IPC: 4 cumulative IPC: 4 (Simulation time: 03 hr 11 min 34 sec)
Heartbeat CPU 3 instructions: 310000001 cycles: 77503658 heartbeat IPC: 4 cumulative IPC: 4 (Simulation time: 03 hr 11 min 34 sec)
*** Reached end of trace: (2, "/home/harshraj/COALESCE-Hashed-Perceptron-Cache-Replacement-Policy/simulator/traces/canneal_big2.champsimtrace")
*** Reached end of trace: (6, "/home/harshraj/COALESCE-Hashed-Perceptron-Cache-Replacement-Policy/simulator/traces/canneal_big2.champsimtrace")
Heartbeat CPU 2 instructions: 310000001 cycles: 77503808 heartbeat IPC: 4 cumulative IPC: 4 (Simulation time: 03 hr 11 min 34 sec)
Heartbeat CPU 6 instructions: 310000001 cycles: 77503811 heartbeat IPC: 4 cumulative IPC: 4 (Simulation time: 03 hr 11 min 34 sec)
*** Reached end of trace: (5, "/home/harshraj/COALESCE-Hashed-Perceptron-Cache-Replacement-Policy/simulator/traces/canneal_big1.champsimtrace")
*** Reached end of trace: (1, "/home/harshraj/COALESCE-Hashed-Perceptron-Cache-Replacement-Policy/simulator/traces/canneal_big1.champsimtrace")
*** Reached end of trace: (7, "/home/harshraj/COALESCE-Hashed-Perceptron-Cache-Replacement-Policy/simulator/traces/canneal_big3.champsimtrace")
*** Reached end of trace: (3, "/home/harshraj/COALESCE-Hashed-Perceptron-Cache-Replacement-Policy/simulator/traces/canneal_big3.champsimtrace")
*** Reached end of trace: (2, "/home/harshraj/COALESCE-Hashed-Perceptron-Cache-Replacement-Policy/simulator/traces/canneal_big2.champsimtrace")
*** Reached end of trace: (6, "/home/harshraj/COALESCE-Hashed-Perceptron-Cache-Replacement-Policy/simulator/traces/canneal_big2.champsimtrace")
*** Reached end of trace: (0, "/home/harshraj/COALESCE-Hashed-Perceptron-Cache-Replacement-Policy/simulator/traces/canneal_big0.champsimtrace")
Heartbeat CPU 0 instructions: 190000047 cycles: 78980924 heartbeat IPC: 2.295 cumulative IPC: 2.291 (Simulation time: 03 hr 15 min 21 sec)
*** Reached end of trace: (4, "/home/harshraj/COALESCE-Hashed-Perceptron-Cache-Replacement-Policy/simulator/traces/canneal_big0.champsimtrace")
Heartbeat CPU 4 instructions: 190000049 cycles: 78999329 heartbeat IPC: 2.296 cumulative IPC: 2.292 (Simulation time: 03 hr 15 min 24 sec)
*** Reached end of trace: (7, "/home/harshraj/COALESCE-Hashed-Perceptron-Cache-Replacement-Policy/simulator/traces/canneal_big3.champsimtrace")
*** Reached end of trace: (3, "/home/harshraj/COALESCE-Hashed-Perceptron-Cache-Replacement-Policy/simulator/traces/canneal_big3.champsimtrace")
Heartbeat CPU 7 instructions: 320000001 cycles: 80003656 heartbeat IPC: 4 cumulative IPC: 4 (Simulation time: 03 hr 17 min 51 sec)
Heartbeat CPU 3 instructions: 320000001 cycles: 80003658 heartbeat IPC: 4 cumulative IPC: 4 (Simulation time: 03 hr 17 min 51 sec)
*** Reached end of trace: (2, "/home/harshraj/COALESCE-Hashed-Perceptron-Cache-Replacement-Policy/simulator/traces/canneal_big2.champsimtrace")
*** Reached end of trace: (6, "/home/harshraj/COALESCE-Hashed-Perceptron-Cache-Replacement-Policy/simulator/traces/canneal_big2.champsimtrace")
Heartbeat CPU 2 instructions: 320000001 cycles: 80003808 heartbeat IPC: 4 cumulative IPC: 4 (Simulation time: 03 hr 17 min 51 sec)
Heartbeat CPU 6 instructions: 320000001 cycles: 80003811 heartbeat IPC: 4 cumulative IPC: 4 (Simulation time: 03 hr 17 min 51 sec)
*** Reached end of trace: (0, "/home/harshraj/COALESCE-Hashed-Perceptron-Cache-Replacement-Policy/simulator/traces/canneal_big0.champsimtrace")
*** Reached end of trace: (4, "/home/harshraj/COALESCE-Hashed-Perceptron-Cache-Replacement-Policy/simulator/traces/canneal_big0.champsimtrace")
*** Reached end of trace: (7, "/home/harshraj/COALESCE-Hashed-Perceptron-Cache-Replacement-Policy/simulator/traces/canneal_big3.champsimtrace")
*** Reached end of trace: (3, "/home/harshraj/COALESCE-Hashed-Perceptron-Cache-Replacement-Policy/simulator/traces/canneal_big3.champsimtrace")
*** Reached end of trace: (2, "/home/harshraj/COALESCE-Hashed-Perceptron-Cache-Replacement-Policy/simulator/traces/canneal_big2.champsimtrace")
*** Reached end of trace: (6, "/home/harshraj/COALESCE-Hashed-Perceptron-Cache-Replacement-Policy/simulator/traces/canneal_big2.champsimtrace")
*** Reached end of trace: (7, "/home/harshraj/COALESCE-Hashed-Perceptron-Cache-Replacement-Policy/simulator/traces/canneal_big3.champsimtrace")
*** Reached end of trace: (3, "/home/harshraj/COALESCE-Hashed-Perceptron-Cache-Replacement-Policy/simulator/traces/canneal_big3.champsimtrace")
Heartbeat CPU 7 instructions: 330000001 cycles: 82503656 heartbeat IPC: 4 cumulative IPC: 4 (Simulation time: 03 hr 24 min 03 sec)
Heartbeat CPU 3 instructions: 330000001 cycles: 82503658 heartbeat IPC: 4 cumulative IPC: 4 (Simulation time: 03 hr 24 min 03 sec)
*** Reached end of trace: (2, "/home/harshraj/COALESCE-Hashed-Perceptron-Cache-Replacement-Policy/simulator/traces/canneal_big2.champsimtrace")
[...]
cpu4->cpu4_L1D RFO          ACCESS:          0 HIT:          0 MISS:          0 MSHR_MERGE:          0
cpu4->cpu4_L1D PREFETCH     ACCESS:          0 HIT:          0 MISS:          0 MSHR_MERGE:          0
cpu4->cpu4_L1D WRITE        ACCESS:  131858438 HIT:  118512557 MISS:   13345881 MSHR_MERGE:    9695090
cpu4->cpu4_L1D TRANSLATION  ACCESS:          0 HIT:          0 MISS:          0 MSHR_MERGE:          0
cpu4->cpu4_L1D PREFETCH REQUESTED:          0 ISSUED:          0 USEFUL:          0 USELESS:          0
cpu4->cpu4_L1D AVERAGE MISS LATENCY: 83.8 cycles
cpu4_L1D COHERENCE INVALIDATIONS:          0
cpu4_L1D COHERENCE WRITE-HIT OTHER-SHARER EVENTS:          0
cpu4->cpu4_ITLB TOTAL        ACCESS:   93968142 HIT:   93928948 MISS:      39194 MSHR_MERGE:      14398
cpu4->cpu4_ITLB LOAD         ACCESS:   93968142 HIT:   93928948 MISS:      39194 MSHR_MERGE:      14398
cpu4->cpu4_ITLB RFO          ACCESS:          0 HIT:          0 MISS:          0 MSHR_MERGE:          0
cpu4->cpu4_ITLB PREFETCH     ACCESS:          0 HIT:          0 MISS:          0 MSHR_MERGE:          0
cpu4->cpu4_ITLB WRITE        ACCESS:          0 HIT:          0 MISS:          0 MSHR_MERGE:          0
cpu4->cpu4_ITLB TRANSLATION  ACCESS:          0 HIT:          0 MISS:          0 MSHR_MERGE:          0
cpu4->cpu4_ITLB PREFETCH REQUESTED:          0 ISSUED:          0 USEFUL:          0 USELESS:          0
cpu4->cpu4_ITLB AVERAGE MISS LATENCY: 3.987 cycles
cpu4_ITLB COHERENCE INVALIDATIONS:          0
cpu4_ITLB COHERENCE WRITE-HIT OTHER-SHARER EVENTS:          0
cpu4->cpu4_DTLB TOTAL        ACCESS:  118493174 HIT:  118184817 MISS:     308357 MSHR_MERGE:      61322
cpu4->cpu4_DTLB LOAD         ACCESS:  118493174 HIT:  118184817 MISS:     308357 MSHR_MERGE:      61322
cpu4->cpu4_DTLB RFO          ACCESS:          0 HIT:          0 MISS:          0 MSHR_MERGE:          0
cpu4->cpu4_DTLB PREFETCH     ACCESS:          0 HIT:          0 MISS:          0 MSHR_MERGE:          0
cpu4->cpu4_DTLB WRITE        ACCESS:          0 HIT:          0 MISS:          0 MSHR_MERGE:          0
cpu4->cpu4_DTLB TRANSLATION  ACCESS:          0 HIT:          0 MISS:          0 MSHR_MERGE:          0
cpu4->cpu4_DTLB PREFETCH REQUESTED:          0 ISSUED:          0 USEFUL:          0 USELESS:          0
cpu4->cpu4_DTLB AVERAGE MISS LATENCY: 3.994 cycles
cpu4_DTLB COHERENCE INVALIDATIONS:          0
cpu4_DTLB COHERENCE WRITE-HIT OTHER-SHARER EVENTS:          0
cpu3_STLB COHERENCE INVALIDATIONS:          0
cpu3_STLB COHERENCE WRITE-HIT OTHER-SHARER EVENTS:          0
cpu3_L2C COHERENCE INVALIDATIONS:          0
cpu3_L2C COHERENCE WRITE-HIT OTHER-SHARER EVENTS:          0
cpu3->cpu3_L1I TOTAL        ACCESS:  181566325 HIT:  181566325 MISS:          0 MSHR_MERGE:          0
cpu3->cpu3_L1I LOAD         ACCESS:  181566325 HIT:  181566325 MISS:          0 MSHR_MERGE:          0
cpu3->cpu3_L1I RFO          ACCESS:          0 HIT:          0 MISS:          0 MSHR_MERGE:          0
cpu3->cpu3_L1I PREFETCH     ACCESS:          0 HIT:          0 MISS:          0 MSHR_MERGE:          0
cpu3->cpu3_L1I WRITE        ACCESS:          0 HIT:          0 MISS:          0 MSHR_MERGE:          0
cpu3->cpu3_L1I TRANSLATION  ACCESS:          0 HIT:          0 MISS:          0 MSHR_MERGE:          0
cpu3->cpu3_L1I PREFETCH REQUESTED:          0 ISSUED:          0 USEFUL:          0 USELESS:          0
cpu3->cpu3_L1I AVERAGE MISS LATENCY: - cycles
cpu3_L1I COHERENCE INVALIDATIONS:          0
cpu3_L1I COHERENCE WRITE-HIT OTHER-SHARER EVENTS:          0
cpu3_L1D COHERENCE INVALIDATIONS:          0
cpu3_L1D COHERENCE WRITE-HIT OTHER-SHARER EVENTS:          0
cpu3->cpu3_ITLB TOTAL        ACCESS:  151540669 HIT:  151540669 MISS:          0 MSHR_MERGE:          0
cpu3->cpu3_ITLB LOAD         ACCESS:  151540669 HIT:  151540669 MISS:          0 MSHR_MERGE:          0
cpu3->cpu3_ITLB RFO          ACCESS:          0 HIT:          0 MISS:          0 MSHR_MERGE:          0
cpu3->cpu3_ITLB PREFETCH     ACCESS:          0 HIT:          0 MISS:          0 MSHR_MERGE:          0
cpu3->cpu3_ITLB WRITE        ACCESS:          0 HIT:          0 MISS:          0 MSHR_MERGE:          0
cpu3->cpu3_ITLB TRANSLATION  ACCESS:          0 HIT:          0 MISS:          0 MSHR_MERGE:          0
cpu3->cpu3_ITLB PREFETCH REQUESTED:          0 ISSUED:          0 USEFUL:          0 USELESS:          0
cpu3->cpu3_ITLB AVERAGE MISS LATENCY: - cycles
cpu3_ITLB COHERENCE INVALIDATIONS:          0
cpu3_ITLB COHERENCE WRITE-HIT OTHER-SHARER EVENTS:          0
cpu3_DTLB COHERENCE INVALIDATIONS:          0
cpu3_DTLB COHERENCE WRITE-HIT OTHER-SHARER EVENTS:          0
cpu2_STLB COHERENCE INVALIDATIONS:          0
cpu2_STLB COHERENCE WRITE-HIT OTHER-SHARER EVENTS:          0
cpu2_L2C COHERENCE INVALIDATIONS:          0
cpu2_L2C COHERENCE WRITE-HIT OTHER-SHARER EVENTS:          0
cpu2->cpu2_L1I TOTAL        ACCESS:  167162630 HIT:  167162630 MISS:          0 MSHR_MERGE:          0
cpu2->cpu2_L1I LOAD         ACCESS:  167162630 HIT:  167162630 MISS:          0 MSHR_MERGE:          0
cpu2->cpu2_L1I RFO          ACCESS:          0 HIT:          0 MISS:          0 MSHR_MERGE:          0
cpu2->cpu2_L1I PREFETCH     ACCESS:          0 HIT:          0 MISS:          0 MSHR_MERGE:          0
cpu2->cpu2_L1I WRITE        ACCESS:          0 HIT:          0 MISS:          0 MSHR_MERGE:          0
cpu2->cpu2_L1I TRANSLATION  ACCESS:          0 HIT:          0 MISS:          0 MSHR_MERGE:          0
cpu2->cpu2_L1I PREFETCH REQUESTED:          0 ISSUED:          0 USEFUL:          0 USELESS:          0
cpu2->cpu2_L1I AVERAGE MISS LATENCY: - cycles
cpu2_L1I COHERENCE INVALIDATIONS:          0
cpu2_L1I COHERENCE WRITE-HIT OTHER-SHARER EVENTS:          0
cpu2_L1D COHERENCE INVALIDATIONS:          0
cpu2_L1D COHERENCE WRITE-HIT OTHER-SHARER EVENTS:          0
cpu2->cpu2_ITLB TOTAL        ACCESS:  145358390 HIT:  145358390 MISS:          0 MSHR_MERGE:          0
cpu2->cpu2_ITLB LOAD         ACCESS:  145358390 HIT:  145358390 MISS:          0 MSHR_MERGE:          0
cpu2->cpu2_ITLB RFO          ACCESS:          0 HIT:          0 MISS:          0 MSHR_MERGE:          0
cpu2->cpu2_ITLB PREFETCH     ACCESS:          0 HIT:          0 MISS:          0 MSHR_MERGE:          0
cpu2->cpu2_ITLB WRITE        ACCESS:          0 HIT:          0 MISS:          0 MSHR_MERGE:          0
cpu2->cpu2_ITLB TRANSLATION  ACCESS:          0 HIT:          0 MISS:          0 MSHR_MERGE:          0
cpu2->cpu2_ITLB PREFETCH REQUESTED:          0 ISSUED:          0 USEFUL:          0 USELESS:          0
cpu2->cpu2_ITLB AVERAGE MISS LATENCY: - cycles
cpu2_ITLB COHERENCE INVALIDATIONS:          0
cpu2_ITLB COHERENCE WRITE-HIT OTHER-SHARER EVENTS:          0
cpu2_DTLB COHERENCE INVALIDATIONS:          0
cpu2_DTLB COHERENCE WRITE-HIT OTHER-SHARER EVENTS:          0
cpu1->cpu1_STLB TOTAL        ACCESS:    2220937 HIT:    2024662 MISS:     196275 MSHR_MERGE:          0
cpu1->cpu1_STLB LOAD         ACCESS:    2220937 HIT:    2024662 MISS:     196275 MSHR_MERGE:          0
cpu1->cpu1_STLB RFO          ACCESS:          0 HIT:          0 MISS:          0 MSHR_MERGE:          0
cpu1->cpu1_STLB PREFETCH     ACCESS:          0 HIT:          0 MISS:          0 MSHR_MERGE:          0
cpu1->cpu1_STLB WRITE        ACCESS:          0 HIT:          0 MISS:          0 MSHR_MERGE:          0
cpu1->cpu1_STLB TRANSLATION  ACCESS:          0 HIT:          0 MISS:          0 MSHR_MERGE:          0
cpu1->cpu1_STLB PREFETCH REQUESTED:          0 ISSUED:          0 USEFUL:          0 USELESS:          0
cpu1->cpu1_STLB AVERAGE MISS LATENCY: 544.9 cycles
cpu1_STLB COHERENCE INVALIDATIONS:          0
cpu1_STLB COHERENCE WRITE-HIT OTHER-SHARER EVENTS:          0
cpu1->cpu1_L2C TOTAL        ACCESS:    2352729 HIT:     413634 MISS:    1939095 MSHR_MERGE:          0
cpu1->cpu1_L2C LOAD         ACCESS:    1963842 HIT:     412474 MISS:    1551368 MSHR_MERGE:          0
cpu1->cpu1_L2C RFO          ACCESS:          0 HIT:          0 MISS:          0 MSHR_MERGE:          0
cpu1->cpu1_L2C PREFETCH     ACCESS:          0 HIT:          0 MISS:          0 MSHR_MERGE:          0
cpu1->cpu1_L2C WRITE        ACCESS:          0 HIT:          0 MISS:          0 MSHR_MERGE:          0
cpu1->cpu1_L2C TRANSLATION  ACCESS:     388887 HIT:       1160 MISS:     387727 MSHR_MERGE:          0
cpu1->cpu1_L2C PREFETCH REQUESTED:          0 ISSUED:          0 USEFUL:          0 USELESS:          0
cpu1->cpu1_L2C AVERAGE MISS LATENCY: 196.3 cycles
cpu1_L2C COHERENCE INVALIDATIONS:          0
cpu1_L2C COHERENCE WRITE-HIT OTHER-SHARER EVENTS:          0
cpu1->cpu1_L1I TOTAL        ACCESS:   33072696 HIT:   30961824 MISS:    2110872 MSHR_MERGE:     147030
cpu1->cpu1_L1I LOAD         ACCESS:   33072696 HIT:   30961824 MISS:    2110872 MSHR_MERGE:     147030
cpu1->cpu1_L1I RFO          ACCESS:          0 HIT:          0 MISS:          0 MSHR_MERGE:          0
cpu1->cpu1_L1I PREFETCH     ACCESS:          0 HIT:          0 MISS:          0 MSHR_MERGE:          0
cpu1->cpu1_L1I WRITE        ACCESS:          0 HIT:          0 MISS:          0 MSHR_MERGE:          0
cpu1->cpu1_L1I TRANSLATION  ACCESS:          0 HIT:          0 MISS:          0 MSHR_MERGE:          0
cpu1->cpu1_L1I PREFETCH REQUESTED:          0 ISSUED:          0 USEFUL:          0 USELESS:          0
cpu1->cpu1_L1I AVERAGE MISS LATENCY: 149.9 cycles
cpu1_L1I COHERENCE INVALIDATIONS:          0
cpu1_L1I COHERENCE WRITE-HIT OTHER-SHARER EVENTS:          0
cpu1->cpu1_L1D TOTAL        ACCESS:     392667 HIT:       3780 MISS:     388887 MSHR_MERGE:          0
cpu1->cpu1_L1D LOAD         ACCESS:          0 HIT:          0 MISS:          0 MSHR_MERGE:          0
cpu1->cpu1_L1D RFO          ACCESS:          0 HIT:          0 MISS:          0 MSHR_MERGE:          0
cpu1->cpu1_L1D PREFETCH     ACCESS:          0 HIT:          0 MISS:          0 MSHR_MERGE:          0
cpu1->cpu1_L1D WRITE        ACCESS:          0 HIT:          0 MISS:          0 MSHR_MERGE:          0
cpu1->cpu1_L1D TRANSLATION  ACCESS:     392667 HIT:       3780 MISS:     388887 MSHR_MERGE:          0
cpu1->cpu1_L1D PREFETCH REQUESTED:          0 ISSUED:          0 USEFUL:          0 USELESS:          0
cpu1->cpu1_L1D AVERAGE MISS LATENCY: 269 cycles
cpu1_L1D COHERENCE INVALIDATIONS:          0
cpu1_L1D COHERENCE WRITE-HIT OTHER-SHARER EVENTS:          0
cpu1->cpu1_ITLB TOTAL        ACCESS:   32538335 HIT:   30266156 MISS:    2272179 MSHR_MERGE:      51242
cpu1->cpu1_ITLB LOAD         ACCESS:   32538335 HIT:   30266156 MISS:    2272179 MSHR_MERGE:      51242
cpu1->cpu1_ITLB RFO          ACCESS:          0 HIT:          0 MISS:          0 MSHR_MERGE:          0
cpu1->cpu1_ITLB PREFETCH     ACCESS:          0 HIT:          0 MISS:          0 MSHR_MERGE:          0
cpu1->cpu1_ITLB WRITE        ACCESS:          0 HIT:          0 MISS:          0 MSHR_MERGE:          0
cpu1->cpu1_ITLB TRANSLATION  ACCESS:          0 HIT:          0 MISS:          0 MSHR_MERGE:          0
cpu1->cpu1_ITLB PREFETCH REQUESTED:          0 ISSUED:          0 USEFUL:          0 USELESS:          0
cpu1->cpu1_ITLB AVERAGE MISS LATENCY: 52.24 cycles
cpu1_ITLB COHERENCE INVALIDATIONS:          0
cpu1_ITLB COHERENCE WRITE-HIT OTHER-SHARER EVENTS:          0
cpu1_DTLB COHERENCE INVALIDATIONS:          0
cpu1_DTLB COHERENCE WRITE-HIT OTHER-SHARER EVENTS:          0
cpu0->cpu0_STLB TOTAL        ACCESS:     271792 HIT:     271792 MISS:          0 MSHR_MERGE:          0
cpu0->cpu0_STLB LOAD         ACCESS:     271792 HIT:     271792 MISS:          0 MSHR_MERGE:          0
cpu0->cpu0_STLB RFO          ACCESS:          0 HIT:          0 MISS:          0 MSHR_MERGE:          0
cpu0->cpu0_STLB PREFETCH     ACCESS:          0 HIT:          0 MISS:          0 MSHR_MERGE:          0
cpu0->cpu0_STLB WRITE        ACCESS:          0 HIT:          0 MISS:          0 MSHR_MERGE:          0
cpu0->cpu0_STLB TRANSLATION  ACCESS:          0 HIT:          0 MISS:          0 MSHR_MERGE:          0
cpu0->cpu0_STLB PREFETCH REQUESTED:          0 ISSUED:          0 USEFUL:          0 USELESS:          0
cpu0->cpu0_STLB AVERAGE MISS LATENCY: - cycles
cpu0_STLB COHERENCE INVALIDATIONS:          0
cpu0_STLB COHERENCE WRITE-HIT OTHER-SHARER EVENTS:          0
cpu0->cpu0_L2C TOTAL        ACCESS:    8718979 HIT:    4228416 MISS:    4490563 MSHR_MERGE:          0
cpu0->cpu0_L2C LOAD         ACCESS:    1371883 HIT:     461929 MISS:     909954 MSHR_MERGE:          0
cpu0->cpu0_L2C RFO          ACCESS:    3645663 HIT:      65054 MISS:    3580609 MSHR_MERGE:          0
cpu0->cpu0_L2C PREFETCH     ACCESS:          0 HIT:          0 MISS:          0 MSHR_MERGE:          0
cpu0->cpu0_L2C WRITE        ACCESS:    3701433 HIT:    3701433 MISS:          0 MSHR_MERGE:          0
cpu0->cpu0_L2C TRANSLATION  ACCESS:          0 HIT:          0 MISS:          0 MSHR_MERGE:          0
cpu0->cpu0_L2C PREFETCH REQUESTED:          0 ISSUED:          0 USEFUL:          0 USELESS:          0
cpu0->cpu0_L2C AVERAGE MISS LATENCY: 137.3 cycles
cpu0_L2C COHERENCE INVALIDATIONS:          0
cpu0_L2C COHERENCE WRITE-HIT OTHER-SHARER EVENTS:          0
cpu0->cpu0_L1I TOTAL        ACCESS:  122305010 HIT:  122043426 MISS:     261584 MSHR_MERGE:      64806
cpu0->cpu0_L1I LOAD         ACCESS:  122305010 HIT:  122043426 MISS:     261584 MSHR_MERGE:      64806
cpu0->cpu0_L1I RFO          ACCESS:          0 HIT:          0 MISS:          0 MSHR_MERGE:          0
cpu0->cpu0_L1I PREFETCH     ACCESS:          0 HIT:          0 MISS:          0 MSHR_MERGE:          0
cpu0->cpu0_L1I WRITE        ACCESS:          0 HIT:          0 MISS:          0 MSHR_MERGE:          0
cpu0->cpu0_L1I TRANSLATION  ACCESS:          0 HIT:          0 MISS:          0 MSHR_MERGE:          0
cpu0->cpu0_L1I PREFETCH REQUESTED:          0 ISSUED:          0 USEFUL:          0 USELESS:          0
cpu0->cpu0_L1I AVERAGE MISS LATENCY: 139.8 cycles
cpu0_L1I COHERENCE INVALIDATIONS:          0
cpu0_L1I COHERENCE WRITE-HIT OTHER-SHARER EVENTS:          0
cpu0->cpu0_L1D TOTAL        ACCESS:  146382723 HIT:  126844650 MISS:   19538073 MSHR_MERGE:   14713244
cpu0->cpu0_L1D LOAD         ACCESS:   14622619 HIT:   12388784 MISS:    2233835 MSHR_MERGE:    1058729
cpu0->cpu0_L1D RFO          ACCESS:          0 HIT:          0 MISS:          0 MSHR_MERGE:          0
cpu0->cpu0_L1D PREFETCH     ACCESS:          0 HIT:          0 MISS:          0 MSHR_MERGE:          0
cpu0->cpu0_L1D WRITE        ACCESS:  131760104 HIT:  114455866 MISS:   17304238 MSHR_MERGE:   13654515
cpu0->cpu0_L1D TRANSLATION  ACCESS:          0 HIT:          0 MISS:          0 MSHR_MERGE:          0
cpu0->cpu0_L1D PREFETCH REQUESTED:          0 ISSUED:          0 USEFUL:          0 USELESS:          0
cpu0->cpu0_L1D AVERAGE MISS LATENCY: 130.3 cycles
cpu0_L1D COHERENCE INVALIDATIONS:          0
cpu0_L1D COHERENCE WRITE-HIT OTHER-SHARER EVENTS:          0
cpu0->cpu0_ITLB TOTAL        ACCESS:  101818454 HIT:  101777008 MISS:      41446 MSHR_MERGE:      16650
cpu0->cpu0_ITLB LOAD         ACCESS:  101818454 HIT:  101777008 MISS:      41446 MSHR_MERGE:      16650
cpu0->cpu0_ITLB RFO          ACCESS:          0 HIT:          0 MISS:          0 MSHR_MERGE:          0
cpu0->cpu0_ITLB PREFETCH     ACCESS:          0 HIT:          0 MISS:          0 MSHR_MERGE:          0
cpu0->cpu0_ITLB WRITE        ACCESS:          0 HIT:          0 MISS:          0 MSHR_MERGE:          0
cpu0->cpu0_ITLB TRANSLATION  ACCESS:          0 HIT:          0 MISS:          0 MSHR_MERGE:          0
cpu0->cpu0_ITLB PREFETCH REQUESTED:          0 ISSUED:          0 USEFUL:          0 USELESS:          0
cpu0->cpu0_ITLB AVERAGE MISS LATENCY: 4.007 cycles
cpu0_ITLB COHERENCE INVALIDATIONS:          0
cpu0_ITLB COHERENCE WRITE-HIT OTHER-SHARER EVENTS:          0
cpu0->cpu0_DTLB TOTAL        ACCESS:  121887946 HIT:  121571847 MISS:     316099 MSHR_MERGE:      69103
cpu0->cpu0_DTLB LOAD         ACCESS:  121887946 HIT:  121571847 MISS:     316099 MSHR_MERGE:      69103
cpu0->cpu0_DTLB RFO          ACCESS:          0 HIT:          0 MISS:          0 MSHR_MERGE:          0
cpu0->cpu0_DTLB PREFETCH     ACCESS:          0 HIT:          0 MISS:          0 MSHR_MERGE:          0
cpu0->cpu0_DTLB WRITE        ACCESS:          0 HIT:          0 MISS:          0 MSHR_MERGE:          0
cpu0->cpu0_DTLB TRANSLATION  ACCESS:          0 HIT:          0 MISS:          0 MSHR_MERGE:          0
cpu0->cpu0_DTLB PREFETCH REQUESTED:          0 ISSUED:          0 USEFUL:          0 USELESS:          0
cpu0->cpu0_DTLB AVERAGE MISS LATENCY: 4 cycles
cpu0_DTLB COHERENCE INVALIDATIONS:          0
cpu0_DTLB COHERENCE WRITE-HIT OTHER-SHARER EVENTS:          0
cpu0->LLC TOTAL        ACCESS:    8109899 HIT:    4957171 MISS:    3152728 MSHR_MERGE:     100246
cpu0->LLC LOAD         ACCESS:     909953 HIT:     333035 MISS:     576918 MSHR_MERGE:      92826
cpu0->LLC RFO          ACCESS:    3580609 HIT:    2138859 MISS:    1441750 MSHR_MERGE:       7420
cpu0->LLC PREFETCH     ACCESS:          0 HIT:          0 MISS:          0 MSHR_MERGE:          0
cpu0->LLC WRITE        ACCESS:    3619337 HIT:    2485277 MISS:    1134060 MSHR_MERGE:          0
cpu0->LLC TRANSLATION  ACCESS:          0 HIT:          0 MISS:          0 MSHR_MERGE:          0
cpu0->LLC PREFETCH REQUESTED:          0 ISSUED:          0 USEFUL:          0 USELESS:          0
cpu0->LLC AVERAGE MISS LATENCY: 450 cycles
cpu1->LLC TOTAL        ACCESS:    1939095 HIT:     536595 MISS:    1402500 MSHR_MERGE:     319064
cpu1->LLC LOAD         ACCESS:    1551368 HIT:     523143 MISS:    1028225 MSHR_MERGE:     319064
cpu1->LLC RFO          ACCESS:          0 HIT:          0 MISS:          0 MSHR_MERGE:          0
cpu1->LLC PREFETCH     ACCESS:          0 HIT:          0 MISS:          0 MSHR_MERGE:          0
cpu1->LLC WRITE        ACCESS:          0 HIT:          0 MISS:          0 MSHR_MERGE:          0
cpu1->LLC TRANSLATION  ACCESS:     387727 HIT:      13452 MISS:     374275 MSHR_MERGE:          0
cpu1->LLC PREFETCH REQUESTED:          0 ISSUED:          0 USEFUL:          0 USELESS:          0
cpu1->LLC AVERAGE MISS LATENCY: 1617 cycles
cpu4->LLC TOTAL        ACCESS:    8111466 HIT:    6210122 MISS:    1901344 MSHR_MERGE:     463994
cpu4->LLC LOAD         ACCESS:     909926 HIT:     367607 MISS:     542319 MSHR_MERGE:     425949
cpu4->LLC RFO          ACCESS:    3581470 HIT:    3002427 MISS:     579043 MSHR_MERGE:      38045
cpu4->LLC PREFETCH     ACCESS:          0 HIT:          0 MISS:          0 MSHR_MERGE:          0
cpu4->LLC WRITE        ACCESS:    3620070 HIT:    2840088 MISS:     779982 MSHR_MERGE:          0
cpu4->LLC TRANSLATION  ACCESS:          0 HIT:          0 MISS:          0 MSHR_MERGE:          0
cpu4->LLC PREFETCH REQUESTED:          0 ISSUED:          0 USEFUL:          0 USELESS:          0
cpu4->LLC AVERAGE MISS LATENCY: 671.8 cycles
cpu5->LLC TOTAL        ACCESS:    1942393 HIT:     545733 MISS:    1396660 MSHR_MERGE:     654134
cpu5->LLC LOAD         ACCESS:    1554421 HIT:     531382 MISS:    1023039 MSHR_MERGE:     654134
cpu5->LLC RFO          ACCESS:          0 HIT:          0 MISS:          0 MSHR_MERGE:          0
cpu5->LLC PREFETCH     ACCESS:          0 HIT:          0 MISS:          0 MSHR_MERGE:          0
cpu5->LLC WRITE        ACCESS:          0 HIT:          0 MISS:          0 MSHR_MERGE:          0
cpu5->LLC TRANSLATION  ACCESS:     387972 HIT:      14351 MISS:     373621 MSHR_MERGE:          0
cpu5->LLC PREFETCH REQUESTED:          0 ISSUED:          0 USEFUL:          0 USELESS:          0
cpu5->LLC AVERAGE MISS LATENCY: 1123 cycles
LLC COHERENCE INVALIDATIONS:    5470535
LLC COHERENCE WRITE-HIT OTHER-SHARER EVENTS:    5321530

DRAM Statistics

Channel 0 RQ ROW_BUFFER_HIT:     100260
  ROW_BUFFER_MISS:    4298831
  AVG DBUS CONGESTED CYCLE: 7.077
Channel 0 WQ ROW_BUFFER_HIT:     457233
  ROW_BUFFER_MISS:    1800058
  FULL:       3133
Channel 0 REFRESHES ISSUED:      26347

VMEM ALIASED FILLS (cross-CPU shared-page hits): 303848
