[VMEM] WARNING: physical memory size is smaller than virtual memory size.

*** ChampSim Multicore Out-of-Order Simulator ***
Warmup Instructions: 50000000
Simulation Instructions: 100000000
Number of CPUs: 8
Page size: 4096

Off-chip DRAM Size: 16 GiB Channels: 1 Width: 64-bit Data Rate: 3205 MT/s
*** Reached end of trace: (4, "traces/canneal_big4.champsimtrace")
*** Reached end of trace: (3, "traces/canneal_big3.champsimtrace")
*** Reached end of trace: (2, "traces/canneal_big2.champsimtrace")
*** Reached end of trace: (7, "traces/canneal_big2.champsimtrace")
*** Reached end of trace: (0, "traces/canneal_big0.champsimtrace")
*** Reached end of trace: (5, "traces/canneal_big0.champsimtrace")
*** Reached end of trace: (4, "traces/canneal_big4.champsimtrace")
*** Reached end of trace: (3, "traces/canneal_big3.champsimtrace")
Heartbeat CPU 4 instructions: 10000001 cycles: 2503631 heartbeat IPC: 3.994 cumulative IPC: 3.994 (Simulation time: 00 hr 07 min 01 sec)
Heartbeat CPU 3 instructions: 10000001 cycles: 2503657 heartbeat IPC: 3.994 cumulative IPC: 3.994 (Simulation time: 00 hr 07 min 01 sec)
*** Reached end of trace: (2, "traces/canneal_big2.champsimtrace")
*** Reached end of trace: (7, "traces/canneal_big2.champsimtrace")
Heartbeat CPU 2 instructions: 10000001 cycles: 2503806 heartbeat IPC: 3.994 cumulative IPC: 3.994 (Simulation time: 00 hr 07 min 01 sec)
Heartbeat CPU 7 instructions: 10000001 cycles: 2503813 heartbeat IPC: 3.994 cumulative IPC: 3.994 (Simulation time: 00 hr 07 min 01 sec)
*** Reached end of trace: (4, "traces/canneal_big4.champsimtrace")
*** Reached end of trace: (3, "traces/canneal_big3.champsimtrace")
*** Reached end of trace: (2, "traces/canneal_big2.champsimtrace")
*** Reached end of trace: (7, "traces/canneal_big2.champsimtrace")
*** Reached end of trace: (0, "traces/canneal_big0.champsimtrace")
Heartbeat CPU 0 instructions: 10000003 cycles: 3988891 heartbeat IPC: 2.507 cumulative IPC: 2.507 (Simulation time: 00 hr 10 min 37 sec)
*** Reached end of trace: (5, "traces/canneal_big0.champsimtrace")
Heartbeat CPU 5 instructions: 10000003 cycles: 3993277 heartbeat IPC: 2.504 cumulative IPC: 2.504 (Simulation time: 00 hr 10 min 37 sec)
*** Reached end of trace: (1, "traces/canneal_big1.champsimtrace")
*** Reached end of trace: (6, "traces/canneal_big1.champsimtrace")
*** Reached end of trace: (4, "traces/canneal_big4.champsimtrace")
*** Reached end of trace: (3, "traces/canneal_big3.champsimtrace")
Heartbeat CPU 4 instructions: 20000001 cycles: 5003631 heartbeat IPC: 4 cumulative IPC: 3.997 (Simulation time: 00 hr 13 min 03 sec)
Heartbeat CPU 3 instructions: 20000001 cycles: 5003657 heartbeat IPC: 4 cumulative IPC: 3.997 (Simulation time: 00 hr 13 min 03 sec)
*** Reached end of trace: (2, "traces/canneal_big2.champsimtrace")
*** Reached end of trace: (7, "traces/canneal_big2.champsimtrace")
Heartbeat CPU 2 instructions: 20000001 cycles: 5003806 heartbeat IPC: 4 cumulative IPC: 3.997 (Simulation time: 00 hr 13 min 03 sec)
Heartbeat CPU 7 instructions: 20000001 cycles: 5003813 heartbeat IPC: 4 cumulative IPC: 3.997 (Simulation time: 00 hr 13 min 03 sec)
*** Reached end of trace: (0, "traces/canneal_big0.champsimtrace")
*** Reached end of trace: (5, "traces/canneal_big0.champsimtrace")
*** Reached end of trace: (4, "traces/canneal_big4.champsimtrace")
*** Reached end of trace: (3, "traces/canneal_big3.champsimtrace")
*** Reached end of trace: (2, "traces/canneal_big2.champsimtrace")
*** Reached end of trace: (7, "traces/canneal_big2.champsimtrace")
*** Reached end of trace: (1, "traces/canneal_big1.champsimtrace")
Heartbeat CPU 1 instructions: 10000002 cycles: 7298744 heartbeat IPC: 1.37 cumulative IPC: 1.37 (Simulation time: 00 hr 19 min 54 sec)
*** Reached end of trace: (6, "traces/canneal_big1.champsimtrace")
Heartbeat CPU 6 instructions: 10000002 cycles: 7306241 heartbeat IPC: 1.369 cumulative IPC: 1.369 (Simulation time: 00 hr 19 min 56 sec)
*** Reached end of trace: (4, "traces/canneal_big4.champsimtrace")
*** Reached end of trace: (3, "traces/canneal_big3.champsimtrace")
Heartbeat CPU 4 instructions: 30000001 cycles: 7503631 heartbeat IPC: 4 cumulative IPC: 3.998 (Simulation time: 00 hr 20 min 42 sec)
Heartbeat CPU 3 instructions: 30000001 cycles: 7503657 heartbeat IPC: 4 cumulative IPC: 3.998 (Simulation time: 00 hr 20 min 42 sec)
*** Reached end of trace: (2, "traces/canneal_big2.champsimtrace")
*** Reached end of trace: (7, "traces/canneal_big2.champsimtrace")
Heartbeat CPU 2 instructions: 30000001 cycles: 7503806 heartbeat IPC: 4 cumulative IPC: 3.998 (Simulation time: 00 hr 20 min 42 sec)
Heartbeat CPU 7 instructions: 30000001 cycles: 7503813 heartbeat IPC: 4 cumulative IPC: 3.998 (Simulation time: 00 hr 20 min 42 sec)
*** Reached end of trace: (0, "traces/canneal_big0.champsimtrace")
Heartbeat CPU 0 instructions: 20000006 cycles: 7835160 heartbeat IPC: 2.6 cumulative IPC: 2.553 (Simulation time: 00 hr 21 min 59 sec)
*** Reached end of trace: (5, "traces/canneal_big0.champsimtrace")
Heartbeat CPU 5 instructions: 20000006 cycles: 7847394 heartbeat IPC: 2.595 cumulative IPC: 2.549 (Simulation time: 00 hr 22 min 02 sec)
*** Reached end of trace: (4, "traces/canneal_big4.champsimtrace")
*** Reached end of trace: (3, "traces/canneal_big3.champsimtrace")
*** Reached end of trace: (2, "traces/canneal_big2.champsimtrace")
*** Reached end of trace: (7, "traces/canneal_big2.champsimtrace")
*** Reached end of trace: (0, "traces/canneal_big0.champsimtrace")
*** Reached end of trace: (5, "traces/canneal_big0.champsimtrace")
*** Reached end of trace: (4, "traces/canneal_big4.champsimtrace")
*** Reached end of trace: (3, "traces/canneal_big3.champsimtrace")
Heartbeat CPU 4 instructions: 40000001 cycles: 10003631 heartbeat IPC: 4 cumulative IPC: 3.999 (Simulation time: 00 hr 29 min 05 sec)
Heartbeat CPU 3 instructions: 40000001 cycles: 10003657 heartbeat IPC: 4 cumulative IPC: 3.999 (Simulation time: 00 hr 29 min 05 sec)
*** Reached end of trace: (2, "traces/canneal_big2.champsimtrace")
*** Reached end of trace: (7, "traces/canneal_big2.champsimtrace")
Heartbeat CPU 2 instructions: 40000001 cycles: 10003806 heartbeat IPC: 4 cumulative IPC: 3.998 (Simulation time: 00 hr 29 min 05 sec)
Heartbeat CPU 7 instructions: 40000001 cycles: 10003813 heartbeat IPC: 4 cumulative IPC: 3.998 (Simulation time: 00 hr 29 min 05 sec)
*** Reached end of trace: (1, "traces/canneal_big1.champsimtrace")
*** Reached end of trace: (6, "traces/canneal_big1.champsimtrace")
*** Reached end of trace: (4, "traces/canneal_big4.champsimtrace")
*** Reached end of trace: (3, "traces/canneal_big3.champsimtrace")
*** Reached end of trace: (2, "traces/canneal_big2.champsimtrace")
*** Reached end of trace: (7, "traces/canneal_big2.champsimtrace")
*** Reached end of trace: (0, "traces/canneal_big0.champsimtrace")
Heartbeat CPU 0 instructions: 30000009 cycles: 11681351 heartbeat IPC: 2.6 cumulative IPC: 2.568 (Simulation time: 00 hr 34 min 20 sec)
*** Reached end of trace: (5, "traces/canneal_big0.champsimtrace")
Heartbeat CPU 5 instructions: 30000009 cycles: 11701445 heartbeat IPC: 2.595 cumulative IPC: 2.564 (Simulation time: 00 hr 34 min 25 sec)
*** Reached end of trace: (4, "traces/canneal_big4.champsimtrace")
*** Reached end of trace: (3, "traces/canneal_big3.champsimtrace")
Heartbeat CPU 4 instructions: 50000001 cycles: 12503631 heartbeat IPC: 4 cumulative IPC: 3.999 (Simulation time: 00 hr 37 min 19 sec)
Warmup finished CPU 4 instructions: 50000001 cycles: 12503631 cumulative IPC: 3.999 (Simulation time: 00 hr 37 min 19 sec)
Heartbeat CPU 3 instructions: 50000001 cycles: 12503657 heartbeat IPC: 4 cumulative IPC: 3.999 (Simulation time: 00 hr 37 min 19 sec)
Warmup finished CPU 3 instructions: 50000001 cycles: 12503657 cumulative IPC: 3.999 (Simulation time: 00 hr 37 min 19 sec)
*** Reached end of trace: (2, "traces/canneal_big2.champsimtrace")
*** Reached end of trace: (7, "traces/canneal_big2.champsimtrace")
Heartbeat CPU 2 instructions: 50000001 cycles: 12503806 heartbeat IPC: 4 cumulative IPC: 3.999 (Simulation time: 00 hr 37 min 19 sec)
Warmup finished CPU 2 instructions: 50000001 cycles: 12503806 cumulative IPC: 3.999 (Simulation time: 00 hr 37 min 19 sec)
Heartbeat CPU 7 instructions: 50000001 cycles: 12503813 heartbeat IPC: 4 cumulative IPC: 3.999 (Simulation time: 00 hr 37 min 19 sec)
Warmup finished CPU 7 instructions: 50000001 cycles: 12503813 cumulative IPC: 3.999 (Simulation time: 00 hr 37 min 19 sec)
*** Reached end of trace: (1, "traces/canneal_big1.champsimtrace")
Heartbeat CPU 1 instructions: 20000004 cycles: 12986638 heartbeat IPC: 1.758 cumulative IPC: 1.54 (Simulation time: 00 hr 38 min 55 sec)
*** Reached end of trace: (6, "traces/canneal_big1.champsimtrace")
Heartbeat CPU 6 instructions: 20000004 cycles: 13008875 heartbeat IPC: 1.754 cumulative IPC: 1.537 (Simulation time: 00 hr 39 min 00 sec)
*** Reached end of trace: (0, "traces/canneal_big0.champsimtrace")
*** Reached end of trace: (5, "traces/canneal_big0.champsimtrace")
*** Reached end of trace: (4, "traces/canneal_big4.champsimtrace")
*** Reached end of trace: (3, "traces/canneal_big3.champsimtrace")
*** Reached end of trace: (2, "traces/canneal_big2.champsimtrace")
*** Reached end of trace: (7, "traces/canneal_big2.champsimtrace")
*** Reached end of trace: (4, "traces/canneal_big4.champsimtrace")
*** Reached end of trace: (3, "traces/canneal_big3.champsimtrace")
Heartbeat CPU 4 instructions: 60000001 cycles: 15003631 heartbeat IPC: 4 cumulative IPC: 3.999 (Simulation time: 00 hr 44 min 49 sec)
Heartbeat CPU 3 instructions: 60000001 cycles: 15003657 heartbeat IPC: 4 cumulative IPC: 3.999 (Simulation time: 00 hr 44 min 49 sec)
*** Reached end of trace: (2, "traces/canneal_big2.champsimtrace")
*** Reached end of trace: (7, "traces/canneal_big2.champsimtrace")
Heartbeat CPU 2 instructions: 60000001 cycles: 15003806 heartbeat IPC: 4 cumulative IPC: 3.999 (Simulation time: 00 hr 44 min 49 sec)
Heartbeat CPU 7 instructions: 60000001 cycles: 15003813 heartbeat IPC: 4 cumulative IPC: 3.999 (Simulation time: 00 hr 44 min 49 sec)
*** Reached end of trace: (0, "traces/canneal_big0.champsimtrace")
Heartbeat CPU 0 instructions: 40000012 cycles: 15527542 heartbeat IPC: 2.6 cumulative IPC: 2.576 (Simulation time: 00 hr 46 min 05 sec)
*** Reached end of trace: (5, "traces/canneal_big0.champsimtrace")
Heartbeat CPU 5 instructions: 40000012 cycles: 15555486 heartbeat IPC: 2.595 cumulative IPC: 2.571 (Simulation time: 00 hr 46 min 10 sec)
*** Reached end of trace: (1, "traces/canneal_big1.champsimtrace")
*** Reached end of trace: (6, "traces/canneal_big1.champsimtrace")
*** Reached end of trace: (4, "traces/canneal_big4.champsimtrace")
*** Reached end of trace: (3, "traces/canneal_big3.champsimtrace")
*** Reached end of trace: (2, "traces/canneal_big2.champsimtrace")
*** Reached end of trace: (7, "traces/canneal_big2.champsimtrace")
*** Reached end of trace: (0, "traces/canneal_big0.champsimtrace")
*** Reached end of trace: (5, "traces/canneal_big0.champsimtrace")
*** Reached end of trace: (4, "traces/canneal_big4.champsimtrace")
*** Reached end of trace: (3, "traces/canneal_big3.champsimtrace")
Heartbeat CPU 4 instructions: 70000001 cycles: 17503631 heartbeat IPC: 4 cumulative IPC: 3.999 (Simulation time: 00 hr 53 min 02 sec)
Heartbeat CPU 3 instructions: 70000001 cycles: 17503657 heartbeat IPC: 4 cumulative IPC: 3.999 (Simulation time: 00 hr 53 min 02 sec)
*** Reached end of trace: (2, "traces/canneal_big2.champsimtrace")
*** Reached end of trace: (7, "traces/canneal_big2.champsimtrace")
Heartbeat CPU 2 instructions: 70000001 cycles: 17503806 heartbeat IPC: 4 cumulative IPC: 3.999 (Simulation time: 00 hr 53 min 02 sec)
Heartbeat CPU 7 instructions: 70000001 cycles: 17503813 heartbeat IPC: 4 cumulative IPC: 3.999 (Simulation time: 00 hr 53 min 02 sec)
*** Reached end of trace: (1, "traces/canneal_big1.champsimtrace")
Heartbeat CPU 1 instructions: 30000004 cycles: 18674599 heartbeat IPC: 1.758 cumulative IPC: 1.606 (Simulation time: 00 hr 57 min 10 sec)
*** Reached end of trace: (6, "traces/canneal_big1.champsimtrace")
Heartbeat CPU 6 instructions: 30000004 cycles: 18711481 heartbeat IPC: 1.754 cumulative IPC: 1.603 (Simulation time: 00 hr 57 min 18 sec)
*** Reached end of trace: (4, "traces/canneal_big4.champsimtrace")
*** Reached end of trace: (3, "traces/canneal_big3.champsimtrace")
*** Reached end of trace: (2, "traces/canneal_big2.champsimtrace")
*** Reached end of trace: (7, "traces/canneal_big2.champsimtrace")
*** Reached end of trace: (0, "traces/canneal_big0.champsimtrace")
Warmup finished CPU 0 instructions: 50000000 cycles: 19373730 cumulative IPC: 2.581 (Simulation time: 00 hr 59 min 21 sec)
Heartbeat CPU 0 instructions: 50000015 cycles: 19373733 heartbeat IPC: 2.6 cumulative IPC: 2.581 (Simulation time: 00 hr 59 min 21 sec)
*** Reached end of trace: (5, "traces/canneal_big0.champsimtrace")
Warmup finished CPU 5 instructions: 50000000 cycles: 19409524 cumulative IPC: 2.576 (Simulation time: 00 hr 59 min 30 sec)
Heartbeat CPU 5 instructions: 50000015 cycles: 19409527 heartbeat IPC: 2.595 cumulative IPC: 2.576 (Simulation time: 00 hr 59 min 30 sec)
*** Reached end of trace: (4, "traces/canneal_big4.champsimtrace")
*** Reached end of trace: (3, "traces/canneal_big3.champsimtrace")
Heartbeat CPU 4 instructions: 80000001 cycles: 20003631 heartbeat IPC: 4 cumulative IPC: 3.999 (Simulation time: 01 hr 01 min 07 sec)
Heartbeat CPU 3 instructions: 80000001 cycles: 20003657 heartbeat IPC: 4 cumulative IPC: 3.999 (Simulation time: 01 hr 01 min 07 sec)
*** Reached end of trace: (2, "traces/canneal_big2.champsimtrace")
*** Reached end of trace: (7, "traces/canneal_big2.champsimtrace")
Heartbeat CPU 2 instructions: 80000001 cycles: 20003806 heartbeat IPC: 4 cumulative IPC: 3.999 (Simulation time: 01 hr 01 min 07 sec)
Heartbeat CPU 7 instructions: 80000001 cycles: 20003813 heartbeat IPC: 4 cumulative IPC: 3.999 (Simulation time: 01 hr 01 min 07 sec)
*** Reached end of trace: (4, "traces/canneal_big4.champsimtrace")
*** Reached end of trace: (3, "traces/canneal_big3.champsimtrace")
*** Reached end of trace: (2, "traces/canneal_big2.champsimtrace")
*** Reached end of trace: (7, "traces/canneal_big2.champsimtrace")
*** Reached end of trace: (0, "traces/canneal_big0.champsimtrace")
*** Reached end of trace: (5, "traces/canneal_big0.champsimtrace")
*** Reached end of trace: (1, "traces/canneal_big1.champsimtrace")
*** Reached end of trace: (6, "traces/canneal_big1.champsimtrace")
*** Reached end of trace: (4, "traces/canneal_big4.champsimtrace")
*** Reached end of trace: (3, "traces/canneal_big3.champsimtrace")
Heartbeat CPU 4 instructions: 90000001 cycles: 22503631 heartbeat IPC: 4 cumulative IPC: 3.999 (Simulation time: 01 hr 07 min 29 sec)
Heartbeat CPU 3 instructions: 90000001 cycles: 22503657 heartbeat IPC: 4 cumulative IPC: 3.999 (Simulation time: 01 hr 07 min 29 sec)
*** Reached end of trace: (2, "traces/canneal_big2.champsimtrace")
*** Reached end of trace: (7, "traces/canneal_big2.champsimtrace")
Heartbeat CPU 2 instructions: 90000001 cycles: 22503806 heartbeat IPC: 4 cumulative IPC: 3.999 (Simulation time: 01 hr 07 min 29 sec)
Heartbeat CPU 7 instructions: 90000001 cycles: 22503813 heartbeat IPC: 4 cumulative IPC: 3.999 (Simulation time: 01 hr 07 min 29 sec)
*** Reached end of trace: (0, "traces/canneal_big0.champsimtrace")
Heartbeat CPU 0 instructions: 60000018 cycles: 23219924 heartbeat IPC: 2.6 cumulative IPC: 2.584 (Simulation time: 01 hr 09 min 13 sec)
*** Reached end of trace: (5, "traces/canneal_big0.champsimtrace")
Heartbeat CPU 5 instructions: 60000018 cycles: 23263568 heartbeat IPC: 2.595 cumulative IPC: 2.579 (Simulation time: 01 hr 09 min 20 sec)
*** Reached end of trace: (4, "traces/canneal_big4.champsimtrace")
*** Reached end of trace: (3, "traces/canneal_big3.champsimtrace")
*** Reached end of trace: (2, "traces/canneal_big2.champsimtrace")
*** Reached end of trace: (7, "traces/canneal_big2.champsimtrace")
*** Reached end of trace: (1, "traces/canneal_big1.champsimtrace")
Heartbeat CPU 1 instructions: 40000006 cycles: 24362391 heartbeat IPC: 1.758 cumulative IPC: 1.642 (Simulation time: 01 hr 12 min 03 sec)
*** Reached end of trace: (6, "traces/canneal_big1.champsimtrace")
Heartbeat CPU 6 instructions: 40000006 cycles: 24414222 heartbeat IPC: 1.754 cumulative IPC: 1.638 (Simulation time: 01 hr 12 min 10 sec)
*** Reached end of trace: (4, "traces/canneal_big4.champsimtrace")
*** Reached end of trace: (3, "traces/canneal_big3.champsimtrace")
Heartbeat CPU 4 instructions: 100000001 cycles: 25003631 heartbeat IPC: 4 cumulative IPC: 3.999 (Simulation time: 01 hr 13 min 35 sec)
Heartbeat CPU 3 instructions: 100000001 cycles: 25003657 heartbeat IPC: 4 cumulative IPC: 3.999 (Simulation time: 01 hr 13 min 35 sec)
*** Reached end of trace: (2, "traces/canneal_big2.champsimtrace")
*** Reached end of trace: (7, "traces/canneal_big2.champsimtrace")
Heartbeat CPU 2 instructions: 100000001 cycles: 25003806 heartbeat IPC: 4 cumulative IPC: 3.999 (Simulation time: 01 hr 13 min 35 sec)
Heartbeat CPU 7 instructions: 100000001 cycles: 25003813 heartbeat IPC: 4 cumulative IPC: 3.999 (Simulation time: 01 hr 13 min 35 sec)
*** Reached end of trace: (0, "traces/canneal_big0.champsimtrace")
*** Reached end of trace: (5, "traces/canneal_big0.champsimtrace")
*** Reached end of trace: (4, "traces/canneal_big4.champsimtrace")
*** Reached end of trace: (3, "traces/canneal_big3.champsimtrace")
*** Reached end of trace: (2, "traces/canneal_big2.champsimtrace")
*** Reached end of trace: (7, "traces/canneal_big2.champsimtrace")
*** Reached end of trace: (0, "traces/canneal_big0.champsimtrace")
Heartbeat CPU 0 instructions: 70000021 cycles: 27066115 heartbeat IPC: 2.6 cumulative IPC: 2.586 (Simulation time: 01 hr 20 min 56 sec)
*** Reached end of trace: (5, "traces/canneal_big0.champsimtrace")
Heartbeat CPU 5 instructions: 70000021 cycles: 27117609 heartbeat IPC: 2.595 cumulative IPC: 2.581 (Simulation time: 01 hr 21 min 07 sec)
*** Reached end of trace: (1, "traces/canneal_big1.champsimtrace")
*** Reached end of trace: (6, "traces/canneal_big1.champsimtrace")
*** Reached end of trace: (4, "traces/canneal_big4.champsimtrace")
*** Reached end of trace: (3, "traces/canneal_big3.champsimtrace")
Heartbeat CPU 4 instructions: 110000001 cycles: 27503631 heartbeat IPC: 4 cumulative IPC: 3.999 (Simulation time: 01 hr 22 min 39 sec)
Heartbeat CPU 3 instructions: 110000001 cycles: 27503657 heartbeat IPC: 4 cumulative IPC: 3.999 (Simulation time: 01 hr 22 min 39 sec)
*** Reached end of trace: (2, "traces/canneal_big2.champsimtrace")
*** Reached end of trace: (7, "traces/canneal_big2.champsimtrace")
Heartbeat CPU 2 instructions: 110000001 cycles: 27503806 heartbeat IPC: 4 cumulative IPC: 3.999 (Simulation time: 01 hr 22 min 39 sec)
Heartbeat CPU 7 instructions: 110000001 cycles: 27503813 heartbeat IPC: 4 cumulative IPC: 3.999 (Simulation time: 01 hr 22 min 39 sec)
*** Reached end of trace: (4, "traces/canneal_big4.champsimtrace")
*** Reached end of trace: (3, "traces/canneal_big3.champsimtrace")
*** Reached end of trace: (2, "traces/canneal_big2.champsimtrace")
*** Reached end of trace: (7, "traces/canneal_big2.champsimtrace")
*** Reached end of trace: (0, "traces/canneal_big0.champsimtrace")
*** Reached end of trace: (5, "traces/canneal_big0.champsimtrace")
*** Reached end of trace: (4, "traces/canneal_big4.champsimtrace")
*** Reached end of trace: (3, "traces/canneal_big3.champsimtrace")
Heartbeat CPU 4 instructions: 120000001 cycles: 30003631 heartbeat IPC: 4 cumulative IPC: 4 (Simulation time: 01 hr 31 min 14 sec)
Heartbeat CPU 3 instructions: 120000001 cycles: 30003657 heartbeat IPC: 4 cumulative IPC: 4 (Simulation time: 01 hr 31 min 14 sec)
*** Reached end of trace: (2, "traces/canneal_big2.champsimtrace")
*** Reached end of trace: (7, "traces/canneal_big2.champsimtrace")
Heartbeat CPU 2 instructions: 120000001 cycles: 30003806 heartbeat IPC: 4 cumulative IPC: 3.999 (Simulation time: 01 hr 31 min 14 sec)
Heartbeat CPU 7 instructions: 120000001 cycles: 30003813 heartbeat IPC: 4 cumulative IPC: 3.999 (Simulation time: 01 hr 31 min 14 sec)
*** Reached end of trace: (1, "traces/canneal_big1.champsimtrace")
Warmup finished CPU 1 instructions: 50000000 cycles: 30049879 cumulative IPC: 1.664 (Simulation time: 01 hr 31 min 21 sec)
Heartbeat CPU 1 instructions: 50000008 cycles: 30049902 heartbeat IPC: 1.758 cumulative IPC: 1.664 (Simulation time: 01 hr 31 min 21 sec)
*** Reached end of trace: (6, "traces/canneal_big1.champsimtrace")
Warmup finished CPU 6 instructions: 50000000 cycles: 30116956 cumulative IPC: 1.66 (Simulation time: 01 hr 31 min 31 sec)
Warmup complete CPU 7 instructions: 120452573 cycles: 30116956 cumulative IPC: 3.999 (Simulation time: 01 hr 31 min 31 sec)
Warmup complete CPU 6 instructions: 50000000 cycles: 30116956 cumulative IPC: 1.66 (Simulation time: 01 hr 31 min 31 sec)
Warmup complete CPU 5 instructions: 77939399 cycles: 30116956 cumulative IPC: 2.588 (Simulation time: 01 hr 31 min 31 sec)
Warmup complete CPU 4 instructions: 120453301 cycles: 30116956 cumulative IPC: 4 (Simulation time: 01 hr 31 min 31 sec)
Warmup complete CPU 3 instructions: 120453197 cycles: 30116956 cumulative IPC: 4 (Simulation time: 01 hr 31 min 31 sec)
Warmup complete CPU 2 instructions: 120452601 cycles: 30116956 cumulative IPC: 3.999 (Simulation time: 01 hr 31 min 31 sec)
Warmup complete CPU 1 instructions: 50113789 cycles: 30116956 cumulative IPC: 1.664 (Simulation time: 01 hr 31 min 31 sec)
Warmup complete CPU 0 instructions: 78078829 cycles: 30116956 cumulative IPC: 2.593 (Simulation time: 01 hr 31 min 31 sec)
Heartbeat CPU 6 instructions: 50000008 cycles: 30117184 heartbeat IPC: 1.753 cumulative IPC: 0.03509 (Simulation time: 01 hr 31 min 31 sec)
*** Reached end of trace: (0, "traces/canneal_big0.champsimtrace")
Heartbeat CPU 0 instructions: 80000024 cycles: 30868985 heartbeat IPC: 2.63 cumulative IPC: 2.555 (Simulation time: 01 hr 33 min 24 sec)
*** Reached end of trace: (5, "traces/canneal_big0.champsimtrace")
Heartbeat CPU 5 instructions: 80000024 cycles: 30890886 heartbeat IPC: 2.65 cumulative IPC: 2.663 (Simulation time: 01 hr 33 min 27 sec)
*** Reached end of trace: (4, "traces/canneal_big4.champsimtrace")
*** Reached end of trace: (3, "traces/canneal_big3.champsimtrace")
*** Reached end of trace: (2, "traces/canneal_big2.champsimtrace")
*** Reached end of trace: (7, "traces/canneal_big2.champsimtrace")
*** Reached end of trace: (4, "traces/canneal_big4.champsimtrace")
*** Reached end of trace: (3, "traces/canneal_big3.champsimtrace")
Heartbeat CPU 4 instructions: 130000001 cycles: 32503631 heartbeat IPC: 4 cumulative IPC: 4 (Simulation time: 01 hr 37 min 21 sec)
Heartbeat CPU 3 instructions: 130000001 cycles: 32503657 heartbeat IPC: 4 cumulative IPC: 4 (Simulation time: 01 hr 37 min 21 sec)
*** Reached end of trace: (2, "traces/canneal_big2.champsimtrace")
*** Reached end of trace: (7, "traces/canneal_big2.champsimtrace")
Heartbeat CPU 2 instructions: 130000001 cycles: 32503806 heartbeat IPC: 4 cumulative IPC: 4 (Simulation time: 01 hr 37 min 21 sec)
Heartbeat CPU 7 instructions: 130000001 cycles: 32503813 heartbeat IPC: 4 cumulative IPC: 4 (Simulation time: 01 hr 37 min 21 sec)
*** Reached end of trace: (0, "traces/canneal_big0.champsimtrace")
*** Reached end of trace: (5, "traces/canneal_big0.champsimtrace")
*** Reached end of trace: (4, "traces/canneal_big4.champsimtrace")
*** Reached end of trace: (3, "traces/canneal_big3.champsimtrace")
*** Reached end of trace: (2, "traces/canneal_big2.champsimtrace")
*** Reached end of trace: (7, "traces/canneal_big2.champsimtrace")
*** Reached end of trace: (4, "traces/canneal_big4.champsimtrace")
*** Reached end of trace: (3, "traces/canneal_big3.champsimtrace")
Heartbeat CPU 4 instructions: 140000001 cycles: 35003631 heartbeat IPC: 4 cumulative IPC: 4 (Simulation time: 01 hr 45 min 27 sec)
Heartbeat CPU 3 instructions: 140000001 cycles: 35003657 heartbeat IPC: 4 cumulative IPC: 4 (Simulation time: 01 hr 45 min 27 sec)
*** Reached end of trace: (2, "traces/canneal_big2.champsimtrace")
*** Reached end of trace: (7, "traces/canneal_big2.champsimtrace")
Heartbeat CPU 2 instructions: 140000001 cycles: 35003806 heartbeat IPC: 4 cumulative IPC: 4 (Simulation time: 01 hr 45 min 27 sec)
Heartbeat CPU 7 instructions: 140000001 cycles: 35003813 heartbeat IPC: 4 cumulative IPC: 4 (Simulation time: 01 hr 45 min 27 sec)
*** Reached end of trace: (0, "traces/canneal_big0.champsimtrace")
*** Reached end of trace: (5, "traces/canneal_big0.champsimtrace")
Heartbeat CPU 0 instructions: 90000024 cycles: 35613182 heartbeat IPC: 2.108 cumulative IPC: 2.169 (Simulation time: 01 hr 47 min 36 sec)
Heartbeat CPU 5 instructions: 90000024 cycles: 35613183 heartbeat IPC: 2.118 cumulative IPC: 2.194 (Simulation time: 01 hr 47 min 36 sec)
*** Reached end of trace: (4, "traces/canneal_big4.champsimtrace")
*** Reached end of trace: (3, "traces/canneal_big3.champsimtrace")
*** Reached end of trace: (2, "traces/canneal_big2.champsimtrace")
*** Reached end of trace: (7, "traces/canneal_big2.champsimtrace")
*** Reached end of trace: (4, "traces/canneal_big4.champsimtrace")
*** Reached end of trace: (3, "traces/canneal_big3.champsimtrace")
Heartbeat CPU 4 instructions: 150000001 cycles: 37503631 heartbeat IPC: 4 cumulative IPC: 4 (Simulation time: 01 hr 54 min 09 sec)
Heartbeat CPU 3 instructions: 150000001 cycles: 37503657 heartbeat IPC: 4 cumulative IPC: 4 (Simulation time: 01 hr 54 min 09 sec)
*** Reached end of trace: (2, "traces/canneal_big2.champsimtrace")
*** Reached end of trace: (7, "traces/canneal_big2.champsimtrace")
Heartbeat CPU 2 instructions: 150000001 cycles: 37503806 heartbeat IPC: 4 cumulative IPC: 4 (Simulation time: 01 hr 54 min 09 sec)
Heartbeat CPU 7 instructions: 150000001 cycles: 37503813 heartbeat IPC: 4 cumulative IPC: 4 (Simulation time: 01 hr 54 min 09 sec)
*** Reached end of trace: (0, "traces/canneal_big0.champsimtrace")
*** Reached end of trace: (5, "traces/canneal_big0.champsimtrace")
*** Reached end of trace: (4, "traces/canneal_big4.champsimtrace")
*** Reached end of trace: (3, "traces/canneal_big3.champsimtrace")
*** Reached end of trace: (2, "traces/canneal_big2.champsimtrace")
*** Reached end of trace: (7, "traces/canneal_big2.champsimtrace")
*** Reached end of trace: (4, "traces/canneal_big4.champsimtrace")
*** Reached end of trace: (3, "traces/canneal_big3.champsimtrace")
Heartbeat CPU 4 instructions: 160000001 cycles: 40003631 heartbeat IPC: 4 cumulative IPC: 4 (Simulation time: 02 hr 02 min 22 sec)
Heartbeat CPU 3 instructions: 160000001 cycles: 40003657 heartbeat IPC: 4 cumulative IPC: 4 (Simulation time: 02 hr 02 min 22 sec)
*** Reached end of trace: (2, "traces/canneal_big2.champsimtrace")
*** Reached end of trace: (7, "traces/canneal_big2.champsimtrace")
Heartbeat CPU 2 instructions: 160000001 cycles: 40003806 heartbeat IPC: 4 cumulative IPC: 4 (Simulation time: 02 hr 02 min 22 sec)
Heartbeat CPU 7 instructions: 160000001 cycles: 40003813 heartbeat IPC: 4 cumulative IPC: 4 (Simulation time: 02 hr 02 min 22 sec)
*** Reached end of trace: (0, "traces/canneal_big0.champsimtrace")
*** Reached end of trace: (5, "traces/canneal_big0.champsimtrace")
Heartbeat CPU 0 instructions: 100000025 cycles: 40327061 heartbeat IPC: 2.121 cumulative IPC: 2.147 (Simulation time: 02 hr 03 min 10 sec)
Heartbeat CPU 5 instructions: 100000025 cycles: 40327062 heartbeat IPC: 2.121 cumulative IPC: 2.161 (Simulation time: 02 hr 03 min 10 sec)
*** Reached end of trace: (4, "traces/canneal_big4.champsimtrace")
*** Reached end of trace: (3, "traces/canneal_big3.champsimtrace")
*** Reached end of trace: (2, "traces/canneal_big2.champsimtrace")
*** Reached end of trace: (7, "traces/canneal_big2.champsimtrace")
*** Reached end of trace: (4, "traces/canneal_big4.champsimtrace")
*** Reached end of trace: (3, "traces/canneal_big3.champsimtrace")
Heartbeat CPU 4 instructions: 170000001 cycles: 42503631 heartbeat IPC: 4 cumulative IPC: 4 (Simulation time: 02 hr 08 min 21 sec)
Heartbeat CPU 3 instructions: 170000001 cycles: 42503657 heartbeat IPC: 4 cumulative IPC: 4 (Simulation time: 02 hr 08 min 21 sec)
*** Reached end of trace: (2, "traces/canneal_big2.champsimtrace")
*** Reached end of trace: (7, "traces/canneal_big2.champsimtrace")
Heartbeat CPU 2 instructions: 170000001 cycles: 42503806 heartbeat IPC: 4 cumulative IPC: 4 (Simulation time: 02 hr 08 min 21 sec)
Heartbeat CPU 7 instructions: 170000001 cycles: 42503813 heartbeat IPC: 4 cumulative IPC: 4 (Simulation time: 02 hr 08 min 21 sec)
*** Reached end of trace: (0, "traces/canneal_big0.champsimtrace")
*** Reached end of trace: (5, "traces/canneal_big0.champsimtrace")
*** Reached end of trace: (4, "traces/canneal_big4.champsimtrace")
*** Reached end of trace: (3, "traces/canneal_big3.champsimtrace")
*** Reached end of trace: (2, "traces/canneal_big2.champsimtrace")
*** Reached end of trace: (7, "traces/canneal_big2.champsimtrace")
*** Reached end of trace: (4, "traces/canneal_big4.champsimtrace")
*** Reached end of trace: (3, "traces/canneal_big3.champsimtrace")
Heartbeat CPU 4 instructions: 180000001 cycles: 45003631 heartbeat IPC: 4 cumulative IPC: 4 (Simulation time: 02 hr 14 min 22 sec)
Heartbeat CPU 3 instructions: 180000001 cycles: 45003657 heartbeat IPC: 4 cumulative IPC: 4 (Simulation time: 02 hr 14 min 22 sec)
*** Reached end of trace: (2, "traces/canneal_big2.champsimtrace")
*** Reached end of trace: (7, "traces/canneal_big2.champsimtrace")
Heartbeat CPU 2 instructions: 180000001 cycles: 45003806 heartbeat IPC: 4 cumulative IPC: 4 (Simulation time: 02 hr 14 min 22 sec)
Heartbeat CPU 7 instructions: 180000001 cycles: 45003813 heartbeat IPC: 4 cumulative IPC: 4 (Simulation time: 02 hr 14 min 22 sec)
*** Reached end of trace: (0, "traces/canneal_big0.champsimtrace")
*** Reached end of trace: (5, "traces/canneal_big0.champsimtrace")
Heartbeat CPU 0 instructions: 110000025 cycles: 45047223 heartbeat IPC: 2.119 cumulative IPC: 2.138 (Simulation time: 02 hr 14 min 28 sec)
Heartbeat CPU 5 instructions: 110000025 cycles: 45047224 heartbeat IPC: 2.119 cumulative IPC: 2.147 (Simulation time: 02 hr 14 min 28 sec)
*** Reached end of trace: (4, "traces/canneal_big4.champsimtrace")
*** Reached end of trace: (3, "traces/canneal_big3.champsimtrace")
*** Reached end of trace: (2, "traces/canneal_big2.champsimtrace")
*** Reached end of trace: (7, "traces/canneal_big2.champsimtrace")
*** Reached end of trace: (0, "traces/canneal_big0.champsimtrace")
*** Reached end of trace: (5, "traces/canneal_big0.champsimtrace")
*** Reached end of trace: (4, "traces/canneal_big4.champsimtrace")
*** Reached end of trace: (3, "traces/canneal_big3.champsimtrace")
Heartbeat CPU 4 instructions: 190000001 cycles: 47503631 heartbeat IPC: 4 cumulative IPC: 4 (Simulation time: 02 hr 22 min 25 sec)
Heartbeat CPU 3 instructions: 190000001 cycles: 47503657 heartbeat IPC: 4 cumulative IPC: 4 (Simulation time: 02 hr 22 min 25 sec)
*** Reached end of trace: (2, "traces/canneal_big2.champsimtrace")
*** Reached end of trace: (7, "traces/canneal_big2.champsimtrace")
Heartbeat CPU 2 instructions: 190000001 cycles: 47503806 heartbeat IPC: 4 cumulative IPC: 4 (Simulation time: 02 hr 22 min 25 sec)
Heartbeat CPU 7 instructions: 190000001 cycles: 47503813 heartbeat IPC: 4 cumulative IPC: 4 (Simulation time: 02 hr 22 min 25 sec)
*** Reached end of trace: (4, "traces/canneal_big4.champsimtrace")
*** Reached end of trace: (3, "traces/canneal_big3.champsimtrace")
*** Reached end of trace: (2, "traces/canneal_big2.champsimtrace")
*** Reached end of trace: (7, "traces/canneal_big2.champsimtrace")
*** Reached end of trace: (6, "traces/canneal_big1.champsimtrace")
*** Reached end of trace: (1, "traces/canneal_big1.champsimtrace")
*** Reached end of trace: (0, "traces/canneal_big0.champsimtrace")
*** Reached end of trace: (5, "traces/canneal_big0.champsimtrace")
Heartbeat CPU 0 instructions: 120000028 cycles: 49765319 heartbeat IPC: 2.119 cumulative IPC: 2.134 (Simulation time: 02 hr 30 min 22 sec)
Heartbeat CPU 5 instructions: 120000028 cycles: 49765320 heartbeat IPC: 2.119 cumulative IPC: 2.141 (Simulation time: 02 hr 30 min 22 sec)
*** Reached end of trace: (4, "traces/canneal_big4.champsimtrace")
*** Reached end of trace: (3, "traces/canneal_big3.champsimtrace")
Heartbeat CPU 4 instructions: 200000001 cycles: 50003631 heartbeat IPC: 4 cumulative IPC: 4 (Simulation time: 02 hr 31 min 10 sec)
Heartbeat CPU 3 instructions: 200000001 cycles: 50003657 heartbeat IPC: 4 cumulative IPC: 4 (Simulation time: 02 hr 31 min 10 sec)
*** Reached end of trace: (2, "traces/canneal_big2.champsimtrace")
*** Reached end of trace: (7, "traces/canneal_big2.champsimtrace")
Heartbeat CPU 2 instructions: 200000001 cycles: 50003806 heartbeat IPC: 4 cumulative IPC: 4 (Simulation time: 02 hr 31 min 10 sec)
Heartbeat CPU 7 instructions: 200000001 cycles: 50003813 heartbeat IPC: 4 cumulative IPC: 4 (Simulation time: 02 hr 31 min 10 sec)
*** Reached end of trace: (4, "traces/canneal_big4.champsimtrace")
*** Reached end of trace: (3, "traces/canneal_big3.champsimtrace")
*** Reached end of trace: (2, "traces/canneal_big2.champsimtrace")
*** Reached end of trace: (7, "traces/canneal_big2.champsimtrace")
*** Reached end of trace: (0, "traces/canneal_big0.champsimtrace")
*** Reached end of trace: (5, "traces/canneal_big0.champsimtrace")
*** Reached end of trace: (4, "traces/canneal_big4.champsimtrace")
*** Reached end of trace: (3, "traces/canneal_big3.champsimtrace")
Heartbeat CPU 4 instructions: 210000001 cycles: 52503631 heartbeat IPC: 4 cumulative IPC: 4 (Simulation time: 02 hr 37 min 55 sec)
Heartbeat CPU 3 instructions: 210000001 cycles: 52503657 heartbeat IPC: 4 cumulative IPC: 4 (Simulation time: 02 hr 37 min 55 sec)
*** Reached end of trace: (2, "traces/canneal_big2.champsimtrace")
*** Reached end of trace: (7, "traces/canneal_big2.champsimtrace")
Heartbeat CPU 2 instructions: 210000001 cycles: 52503806 heartbeat IPC: 4 cumulative IPC: 4 (Simulation time: 02 hr 37 min 55 sec)
Heartbeat CPU 7 instructions: 210000001 cycles: 52503813 heartbeat IPC: 4 cumulative IPC: 4 (Simulation time: 02 hr 37 min 55 sec)
*** Reached end of trace: (4, "traces/canneal_big4.champsimtrace")
*** Reached end of trace: (3, "traces/canneal_big3.champsimtrace")
*** Reached end of trace: (2, "traces/canneal_big2.champsimtrace")
*** Reached end of trace: (7, "traces/canneal_big2.champsimtrace")
*** Reached end of trace: (0, "traces/canneal_big0.champsimtrace")
*** Reached end of trace: (5, "traces/canneal_big0.champsimtrace")
Heartbeat CPU 0 instructions: 130000031 cycles: 54524850 heartbeat IPC: 2.101 cumulative IPC: 2.127 (Simulation time: 02 hr 43 min 17 sec)
Heartbeat CPU 5 instructions: 130000031 cycles: 54524851 heartbeat IPC: 2.101 cumulative IPC: 2.133 (Simulation time: 02 hr 43 min 17 sec)
*** Reached end of trace: (4, "traces/canneal_big4.champsimtrace")
*** Reached end of trace: (3, "traces/canneal_big3.champsimtrace")
Heartbeat CPU 4 instructions: 220000001 cycles: 55003631 heartbeat IPC: 4 cumulative IPC: 4 (Simulation time: 02 hr 44 min 23 sec)
Heartbeat CPU 3 instructions: 220000001 cycles: 55003657 heartbeat IPC: 4 cumulative IPC: 4 (Simulation time: 02 hr 44 min 23 sec)
*** Reached end of trace: (2, "traces/canneal_big2.champsimtrace")
*** Reached end of trace: (7, "traces/canneal_big2.champsimtrace")
Heartbeat CPU 2 instructions: 220000001 cycles: 55003806 heartbeat IPC: 4 cumulative IPC: 4 (Simulation time: 02 hr 44 min 23 sec)
Heartbeat CPU 7 instructions: 220000001 cycles: 55003813 heartbeat IPC: 4 cumulative IPC: 4 (Simulation time: 02 hr 44 min 23 sec)
Simulation finished CPU 7 instructions: 100000000 cycles: 25000000 cumulative IPC: 4 (Simulation time: 02 hr 44 min 39 sec)
Simulation finished CPU 4 instructions: 100000000 cycles: 25000000 cumulative IPC: 4 (Simulation time: 02 hr 44 min 39 sec)
Simulation finished CPU 3 instructions: 100000000 cycles: 25000000 cumulative IPC: 4 (Simulation time: 02 hr 44 min 39 sec)
Simulation finished CPU 2 instructions: 100000000 cycles: 25000000 cumulative IPC: 4 (Simulation time: 02 hr 44 min 39 sec)
*** Reached end of trace: (4, "traces/canneal_big4.champsimtrace")
*** Reached end of trace: (3, "traces/canneal_big3.champsimtrace")
*** Reached end of trace: (2, "traces/canneal_big2.champsimtrace")
*** Reached end of trace: (7, "traces/canneal_big2.champsimtrace")
*** Reached end of trace: (0, "traces/canneal_big0.champsimtrace")
*** Reached end of trace: (5, "traces/canneal_big0.champsimtrace")
*** Reached end of trace: (4, "traces/canneal_big4.champsimtrace")
*** Reached end of trace: (3, "traces/canneal_big3.champsimtrace")
Heartbeat CPU 4 instructions: 230000001 cycles: 57503631 heartbeat IPC: 4 cumulative IPC: 4 (Simulation time: 02 hr 52 min 33 sec)
Heartbeat CPU 3 instructions: 230000001 cycles: 57503657 heartbeat IPC: 4 cumulative IPC: 4 (Simulation time: 02 hr 52 min 33 sec)
*** Reached end of trace: (2, "traces/canneal_big2.champsimtrace")
*** Reached end of trace: (7, "traces/canneal_big2.champsimtrace")
Heartbeat CPU 2 instructions: 230000001 cycles: 57503806 heartbeat IPC: 4 cumulative IPC: 4 (Simulation time: 02 hr 52 min 33 sec)
Heartbeat CPU 7 instructions: 230000001 cycles: 57503813 heartbeat IPC: 4 cumulative IPC: 4 (Simulation time: 02 hr 52 min 33 sec)
*** Reached end of trace: (4, "traces/canneal_big4.champsimtrace")
*** Reached end of trace: (3, "traces/canneal_big3.champsimtrace")
*** Reached end of trace: (2, "traces/canneal_big2.champsimtrace")
*** Reached end of trace: (7, "traces/canneal_big2.champsimtrace")
*** Reached end of trace: (0, "traces/canneal_big0.champsimtrace")
*** Reached end of trace: (5, "traces/canneal_big0.champsimtrace")
Heartbeat CPU 0 instructions: 140000032 cycles: 59242619 heartbeat IPC: 2.12 cumulative IPC: 2.126 (Simulation time: 02 hr 58 min 38 sec)
Heartbeat CPU 5 instructions: 140000032 cycles: 59242620 heartbeat IPC: 2.12 cumulative IPC: 2.131 (Simulation time: 02 hr 58 min 38 sec)
*** Reached end of trace: (4, "traces/canneal_big4.champsimtrace")
*** Reached end of trace: (3, "traces/canneal_big3.champsimtrace")
Heartbeat CPU 4 instructions: 240000001 cycles: 60003631 heartbeat IPC: 4 cumulative IPC: 4 (Simulation time: 03 hr 01 min 11 sec)
Heartbeat CPU 3 instructions: 240000001 cycles: 60003657 heartbeat IPC: 4 cumulative IPC: 4 (Simulation time: 03 hr 01 min 11 sec)
*** Reached end of trace: (2, "traces/canneal_big2.champsimtrace")
*** Reached end of trace: (7, "traces/canneal_big2.champsimtrace")
Heartbeat CPU 2 instructions: 240000001 cycles: 60003806 heartbeat IPC: 4 cumulative IPC: 4 (Simulation time: 03 hr 01 min 11 sec)
Heartbeat CPU 7 instructions: 240000001 cycles: 60003813 heartbeat IPC: 4 cumulative IPC: 4 (Simulation time: 03 hr 01 min 11 sec)
*** Reached end of trace: (4, "traces/canneal_big4.champsimtrace")
*** Reached end of trace: (3, "traces/canneal_big3.champsimtrace")
*** Reached end of trace: (2, "traces/canneal_big2.champsimtrace")
*** Reached end of trace: (7, "traces/canneal_big2.champsimtrace")
*** Reached end of trace: (0, "traces/canneal_big0.champsimtrace")
*** Reached end of trace: (5, "traces/canneal_big0.champsimtrace")
*** Reached end of trace: (4, "traces/canneal_big4.champsimtrace")
*** Reached end of trace: (3, "traces/canneal_big3.champsimtrace")
Heartbeat CPU 4 instructions: 250000001 cycles: 62503631 heartbeat IPC: 4 cumulative IPC: 4 (Simulation time: 03 hr 07 min 50 sec)
Heartbeat CPU 3 instructions: 250000001 cycles: 62503657 heartbeat IPC: 4 cumulative IPC: 4 (Simulation time: 03 hr 07 min 50 sec)
*** Reached end of trace: (2, "traces/canneal_big2.champsimtrace")
*** Reached end of trace: (7, "traces/canneal_big2.champsimtrace")
Heartbeat CPU 2 instructions: 250000001 cycles: 62503806 heartbeat IPC: 4 cumulative IPC: 4 (Simulation time: 03 hr 07 min 50 sec)
Heartbeat CPU 7 instructions: 250000001 cycles: 62503813 heartbeat IPC: 4 cumulative IPC: 4 (Simulation time: 03 hr 07 min 50 sec)
*** Reached end of trace: (4, "traces/canneal_big4.champsimtrace")
*** Reached end of trace: (3, "traces/canneal_big3.champsimtrace")
*** Reached end of trace: (2, "traces/canneal_big2.champsimtrace")
*** Reached end of trace: (7, "traces/canneal_big2.champsimtrace")
*** Reached end of trace: (0, "traces/canneal_big0.champsimtrace")
*** Reached end of trace: (5, "traces/canneal_big0.champsimtrace")
Heartbeat CPU 0 instructions: 150000032 cycles: 63957391 heartbeat IPC: 2.121 cumulative IPC: 2.125 (Simulation time: 03 hr 11 min 21 sec)
Heartbeat CPU 5 instructions: 150000032 cycles: 63957392 heartbeat IPC: 2.121 cumulative IPC: 2.129 (Simulation time: 03 hr 11 min 21 sec)
*** Reached end of trace: (4, "traces/canneal_big4.champsimtrace")
*** Reached end of trace: (3, "traces/canneal_big3.champsimtrace")
Heartbeat CPU 4 instructions: 260000001 cycles: 65003631 heartbeat IPC: 4 cumulative IPC: 4 (Simulation time: 03 hr 13 min 48 sec)
Heartbeat CPU 3 instructions: 260000001 cycles: 65003657 heartbeat IPC: 4 cumulative IPC: 4 (Simulation time: 03 hr 13 min 48 sec)
*** Reached end of trace: (2, "traces/canneal_big2.champsimtrace")
*** Reached end of trace: (7, "traces/canneal_big2.champsimtrace")
Heartbeat CPU 2 instructions: 260000001 cycles: 65003806 heartbeat IPC: 4 cumulative IPC: 4 (Simulation time: 03 hr 13 min 48 sec)
Heartbeat CPU 7 instructions: 260000001 cycles: 65003813 heartbeat IPC: 4 cumulative IPC: 4 (Simulation time: 03 hr 13 min 48 sec)
*** Reached end of trace: (4, "traces/canneal_big4.champsimtrace")
*** Reached end of trace: (3, "traces/canneal_big3.champsimtrace")
*** Reached end of trace: (2, "traces/canneal_big2.champsimtrace")
*** Reached end of trace: (7, "traces/canneal_big2.champsimtrace")
*** Reached end of trace: (0, "traces/canneal_big0.champsimtrace")
*** Reached end of trace: (5, "traces/canneal_big0.champsimtrace")
*** Reached end of trace: (4, "traces/canneal_big4.champsimtrace")
*** Reached end of trace: (3, "traces/canneal_big3.champsimtrace")
Heartbeat CPU 4 instructions: 270000001 cycles: 67503631 heartbeat IPC: 4 cumulative IPC: 4 (Simulation time: 03 hr 21 min 27 sec)
Heartbeat CPU 3 instructions: 270000001 cycles: 67503657 heartbeat IPC: 4 cumulative IPC: 4 (Simulation time: 03 hr 21 min 27 sec)
*** Reached end of trace: (2, "traces/canneal_big2.champsimtrace")
*** Reached end of trace: (7, "traces/canneal_big2.champsimtrace")
Heartbeat CPU 2 instructions: 270000001 cycles: 67503806 heartbeat IPC: 4 cumulative IPC: 4 (Simulation time: 03 hr 21 min 27 sec)
Heartbeat CPU 7 instructions: 270000001 cycles: 67503813 heartbeat IPC: 4 cumulative IPC: 4 (Simulation time: 03 hr 21 min 27 sec)
*** Reached end of trace: (0, "traces/canneal_big0.champsimtrace")
*** Reached end of trace: (5, "traces/canneal_big0.champsimtrace")
Heartbeat CPU 0 instructions: 160000035 cycles: 68669229 heartbeat IPC: 2.122 cumulative IPC: 2.125 (Simulation time: 03 hr 25 min 20 sec)
Heartbeat CPU 5 instructions: 160000035 cycles: 68669230 heartbeat IPC: 2.122 cumulative IPC: 2.129 (Simulation time: 03 hr 25 min 20 sec)
*** Reached end of trace: (6, "traces/canneal_big1.champsimtrace")
*** Reached end of trace: (1, "traces/canneal_big1.champsimtrace")
Heartbeat CPU 1 instructions: 60000010 cycles: 68698154 heartbeat IPC: 0.2587 cumulative IPC: 0.2562 (Simulation time: 03 hr 25 min 26 sec)
Heartbeat CPU 6 instructions: 60000010 cycles: 68698250 heartbeat IPC: 0.2592 cumulative IPC: 0.2592 (Simulation time: 03 hr 25 min 26 sec)
*** Reached end of trace: (4, "traces/canneal_big4.champsimtrace")
*** Reached end of trace: (3, "traces/canneal_big3.champsimtrace")
*** Reached end of trace: (2, "traces/canneal_big2.champsimtrace")
*** Reached end of trace: (7, "traces/canneal_big2.champsimtrace")
*** Reached end of trace: (4, "traces/canneal_big4.champsimtrace")
*** Reached end of trace: (3, "traces/canneal_big3.champsimtrace")
Heartbeat CPU 4 instructions: 280000001 cycles: 70003631 heartbeat IPC: 4 cumulative IPC: 4 (Simulation time: 03 hr 29 min 59 sec)
Heartbeat CPU 3 instructions: 280000001 cycles: 70003657 heartbeat IPC: 4 cumulative IPC: 4 (Simulation time: 03 hr 29 min 59 sec)
*** Reached end of trace: (2, "traces/canneal_big2.champsimtrace")
*** Reached end of trace: (7, "traces/canneal_big2.champsimtrace")
Heartbeat CPU 2 instructions: 280000001 cycles: 70003806 heartbeat IPC: 4 cumulative IPC: 4 (Simulation time: 03 hr 29 min 59 sec)
Heartbeat CPU 7 instructions: 280000001 cycles: 70003813 heartbeat IPC: 4 cumulative IPC: 4 (Simulation time: 03 hr 29 min 59 sec)
*** Reached end of trace: (0, "traces/canneal_big0.champsimtrace")
*** Reached end of trace: (5, "traces/canneal_big0.champsimtrace")
*** Reached end of trace: (4, "traces/canneal_big4.champsimtrace")
*** Reached end of trace: (3, "traces/canneal_big3.champsimtrace")
*** Reached end of trace: (2, "traces/canneal_big2.champsimtrace")
*** Reached end of trace: (7, "traces/canneal_big2.champsimtrace")
*** Reached end of trace: (4, "traces/canneal_big4.champsimtrace")
*** Reached end of trace: (3, "traces/canneal_big3.champsimtrace")
Heartbeat CPU 4 instructions: 290000001 cycles: 72503631 heartbeat IPC: 4 cumulative IPC: 4 (Simulation time: 03 hr 37 min 02 sec)
Heartbeat CPU 3 instructions: 290000001 cycles: 72503657 heartbeat IPC: 4 cumulative IPC: 4 (Simulation time: 03 hr 37 min 02 sec)
*** Reached end of trace: (2, "traces/canneal_big2.champsimtrace")
*** Reached end of trace: (7, "traces/canneal_big2.champsimtrace")
Heartbeat CPU 2 instructions: 290000001 cycles: 72503806 heartbeat IPC: 4 cumulative IPC: 4 (Simulation time: 03 hr 37 min 02 sec)
Heartbeat CPU 7 instructions: 290000001 cycles: 72503813 heartbeat IPC: 4 cumulative IPC: 4 (Simulation time: 03 hr 37 min 02 sec)
*** Reached end of trace: (0, "traces/canneal_big0.champsimtrace")
*** Reached end of trace: (5, "traces/canneal_big0.champsimtrace")
Heartbeat CPU 0 instructions: 170000038 cycles: 73430053 heartbeat IPC: 2.1 cumulative IPC: 2.122 (Simulation time: 03 hr 39 min 57 sec)
Heartbeat CPU 5 instructions: 170000038 cycles: 73430054 heartbeat IPC: 2.1 cumulative IPC: 2.125 (Simulation time: 03 hr 39 min 57 sec)
*** Reached end of trace: (4, "traces/canneal_big4.champsimtrace")
*** Reached end of trace: (3, "traces/canneal_big3.champsimtrace")
*** Reached end of trace: (2, "traces/canneal_big2.champsimtrace")
*** Reached end of trace: (7, "traces/canneal_big2.champsimtrace")
*** Reached end of trace: (4, "traces/canneal_big4.champsimtrace")
*** Reached end of trace: (3, "traces/canneal_big3.champsimtrace")
Heartbeat CPU 4 instructions: 300000001 cycles: 75003631 heartbeat IPC: 4 cumulative IPC: 4 (Simulation time: 03 hr 44 min 56 sec)
Heartbeat CPU 3 instructions: 300000001 cycles: 75003657 heartbeat IPC: 4 cumulative IPC: 4 (Simulation time: 03 hr 44 min 56 sec)
*** Reached end of trace: (2, "traces/canneal_big2.champsimtrace")
*** Reached end of trace: (7, "traces/canneal_big2.champsimtrace")
Heartbeat CPU 2 instructions: 300000001 cycles: 75003806 heartbeat IPC: 4 cumulative IPC: 4 (Simulation time: 03 hr 44 min 56 sec)
Heartbeat CPU 7 instructions: 300000001 cycles: 75003813 heartbeat IPC: 4 cumulative IPC: 4 (Simulation time: 03 hr 44 min 56 sec)
*** Reached end of trace: (0, "traces/canneal_big0.champsimtrace")
*** Reached end of trace: (5, "traces/canneal_big0.champsimtrace")
*** Reached end of trace: (4, "traces/canneal_big4.champsimtrace")
*** Reached end of trace: (3, "traces/canneal_big3.champsimtrace")
*** Reached end of trace: (2, "traces/canneal_big2.champsimtrace")
*** Reached end of trace: (7, "traces/canneal_big2.champsimtrace")
Simulation finished CPU 5 instructions: 100000000 cycles: 47233114 cumulative IPC: 2.117 (Simulation time: 03 hr 51 min 23 sec)
Simulation finished CPU 0 instructions: 100000000 cycles: 47287794 cumulative IPC: 2.115 (Simulation time: 03 hr 51 min 36 sec)
*** Reached end of trace: (4, "traces/canneal_big4.champsimtrace")
*** Reached end of trace: (3, "traces/canneal_big3.champsimtrace")
Heartbeat CPU 4 instructions: 310000001 cycles: 77503631 heartbeat IPC: 4 cumulative IPC: 4 (Simulation time: 03 hr 51 min 59 sec)
Heartbeat CPU 3 instructions: 310000001 cycles: 77503657 heartbeat IPC: 4 cumulative IPC: 4 (Simulation time: 03 hr 51 min 59 sec)
*** Reached end of trace: (2, "traces/canneal_big2.champsimtrace")
*** Reached end of trace: (7, "traces/canneal_big2.champsimtrace")
Heartbeat CPU 2 instructions: 310000001 cycles: 77503806 heartbeat IPC: 4 cumulative IPC: 4 (Simulation time: 03 hr 51 min 59 sec)
Heartbeat CPU 7 instructions: 310000001 cycles: 77503813 heartbeat IPC: 4 cumulative IPC: 4 (Simulation time: 03 hr 51 min 59 sec)
*** Reached end of trace: (0, "traces/canneal_big0.champsimtrace")
*** Reached end of trace: (5, "traces/canneal_big0.champsimtrace")
Heartbeat CPU 0 instructions: 180000041 cycles: 78148954 heartbeat IPC: 2.119 cumulative IPC: 2.122 (Simulation time: 03 hr 54 min 15 sec)
Heartbeat CPU 5 instructions: 180000041 cycles: 78148955 heartbeat IPC: 2.119 cumulative IPC: 2.125 (Simulation time: 03 hr 54 min 15 sec)
*** Reached end of trace: (4, "traces/canneal_big4.champsimtrace")
*** Reached end of trace: (3, "traces/canneal_big3.champsimtrace")
*** Reached end of trace: (2, "traces/canneal_big2.champsimtrace")
*** Reached end of trace: (7, "traces/canneal_big2.champsimtrace")
*** Reached end of trace: (4, "traces/canneal_big4.champsimtrace")
*** Reached end of trace: (3, "traces/canneal_big3.champsimtrace")
Heartbeat CPU 4 instructions: 320000001 cycles: 80003631 heartbeat IPC: 4 cumulative IPC: 4 (Simulation time: 04 hr 00 min 46 sec)
Heartbeat CPU 3 instructions: 320000001 cycles: 80003657 heartbeat IPC: 4 cumulative IPC: 4 (Simulation time: 04 hr 00 min 46 sec)
*** Reached end of trace: (2, "traces/canneal_big2.champsimtrace")
*** Reached end of trace: (7, "traces/canneal_big2.champsimtrace")
Heartbeat CPU 2 instructions: 320000001 cycles: 80003806 heartbeat IPC: 4 cumulative IPC: 4 (Simulation time: 04 hr 00 min 46 sec)
Heartbeat CPU 7 instructions: 320000001 cycles: 80003813 heartbeat IPC: 4 cumulative IPC: 4 (Simulation time: 04 hr 00 min 46 sec)
*** Reached end of trace: (0, "traces/canneal_big0.champsimtrace")
*** Reached end of trace: (5, "traces/canneal_big0.champsimtrace")
*** Reached end of trace: (4, "traces/canneal_big4.champsimtrace")
*** Reached end of trace: (3, "traces/canneal_big3.champsimtrace")
*** Reached end of trace: (2, "traces/canneal_big2.champsimtrace")
*** Reached end of trace: (7, "traces/canneal_big2.champsimtrace")
*** Reached end of trace: (4, "traces/canneal_big4.champsimtrace")
*** Reached end of trace: (3, "traces/canneal_big3.champsimtrace")
Heartbeat CPU 4 instructions: 330000001 cycles: 82503631 heartbeat IPC: 4 cumulative IPC: 4 (Simulation time: 04 hr 07 min 27 sec)
Heartbeat CPU 3 instructions: 330000001 cycles: 82503657 heartbeat IPC: 4 cumulative IPC: 4 (Simulation time: 04 hr 07 min 27 sec)
*** Reached end of trace: (2, "traces/canneal_big2.champsimtrace")
*** Reached end of trace: (7, "traces/canneal_big2.champsimtrace")
Heartbeat CPU 2 instructions: 330000001 cycles: 82503806 heartbeat IPC: 4 cumulative IPC: 4 (Simulation time: 04 hr 07 min 27 sec)
Heartbeat CPU 7 instructions: 330000001 cycles: 82503813 heartbeat IPC: 4 cumulative IPC: 4 (Simulation time: 04 hr 07 min 27 sec)
*** Reached end of trace: (0, "traces/canneal_big0.champsimtrace")
*** Reached end of trace: (5, "traces/canneal_big0.champsimtrace")
Heartbeat CPU 0 instructions: 190000042 cycles: 82856316 heartbeat IPC: 2.124 cumulative IPC: 2.122 (Simulation time: 04 hr 08 min 31 sec)
Heartbeat CPU 5 instructions: 190000042 cycles: 82856317 heartbeat IPC: 2.124 cumulative IPC: 2.125 (Simulation time: 04 hr 08 min 31 sec)
*** Reached end of trace: (4, "traces/canneal_big4.champsimtrace")
*** Reached end of trace: (3, "traces/canneal_big3.champsimtrace")
*** Reached end of trace: (2, "traces/canneal_big2.champsimtrace")
*** Reached end of trace: (7, "traces/canneal_big2.champsimtrace")
*** Reached end of trace: (4, "traces/canneal_big4.champsimtrace")
*** Reached end of trace: (3, "traces/canneal_big3.champsimtrace")
Heartbeat CPU 4 instructions: 340000001 cycles: 85003631 heartbeat IPC: 4 cumulative IPC: 4 (Simulation time: 04 hr 14 min 29 sec)
Heartbeat CPU 3 instructions: 340000001 cycles: 85003657 heartbeat IPC: 4 cumulative IPC: 4 (Simulation time: 04 hr 14 min 29 sec)
*** Reached end of trace: (2, "traces/canneal_big2.champsimtrace")
*** Reached end of trace: (7, "traces/canneal_big2.champsimtrace")
Heartbeat CPU 2 instructions: 340000001 cycles: 85003806 heartbeat IPC: 4 cumulative IPC: 4 (Simulation time: 04 hr 14 min 29 sec)
Heartbeat CPU 7 instructions: 340000001 cycles: 85003813 heartbeat IPC: 4 cumulative IPC: 4 (Simulation time: 04 hr 14 min 29 sec)
*** Reached end of trace: (0, "traces/canneal_big0.champsimtrace")
*** Reached end of trace: (5, "traces/canneal_big0.champsimtrace")
*** Reached end of trace: (4, "traces/canneal_big4.champsimtrace")
*** Reached end of trace: (3, "traces/canneal_big3.champsimtrace")
*** Reached end of trace: (2, "traces/canneal_big2.champsimtrace")
*** Reached end of trace: (7, "traces/canneal_big2.champsimtrace")
*** Reached end of trace: (4, "traces/canneal_big4.champsimtrace")
*** Reached end of trace: (3, "traces/canneal_big3.champsimtrace")
Heartbeat CPU 4 instructions: 350000001 cycles: 87503631 heartbeat IPC: 4 cumulative IPC: 4 (Simulation time: 04 hr 20 min 53 sec)
Heartbeat CPU 3 instructions: 350000001 cycles: 87503657 heartbeat IPC: 4 cumulative IPC: 4 (Simulation time: 04 hr 20 min 53 sec)
*** Reached end of trace: (2, "traces/canneal_big2.champsimtrace")
*** Reached end of trace: (7, "traces/canneal_big2.champsimtrace")
Heartbeat CPU 2 instructions: 350000001 cycles: 87503806 heartbeat IPC: 4 cumulative IPC: 4 (Simulation time: 04 hr 20 min 53 sec)
Heartbeat CPU 7 instructions: 350000001 cycles: 87503813 heartbeat IPC: 4 cumulative IPC: 4 (Simulation time: 04 hr 20 min 53 sec)
*** Reached end of trace: (0, "traces/canneal_big0.champsimtrace")
*** Reached end of trace: (5, "traces/canneal_big0.champsimtrace")
Heartbeat CPU 0 instructions: 200000045 cycles: 87556772 heartbeat IPC: 2.127 cumulative IPC: 2.123 (Simulation time: 04 hr 21 min 03 sec)
Heartbeat CPU 5 instructions: 200000045 cycles: 87556773 heartbeat IPC: 2.127 cumulative IPC: 2.125 (Simulation time: 04 hr 21 min 03 sec)
*** Reached end of trace: (6, "traces/canneal_big1.champsimtrace")
*** Reached end of trace: (1, "traces/canneal_big1.champsimtrace")
*** Reached end of trace: (4, "traces/canneal_big4.champsimtrace")
*** Reached end of trace: (3, "traces/canneal_big3.champsimtrace")
*** Reached end of trace: (2, "traces/canneal_big2.champsimtrace")
*** Reached end of trace: (7, "traces/canneal_big2.champsimtrace")
*** Reached end of trace: (0, "traces/canneal_big0.champsimtrace")
*** Reached end of trace: (5, "traces/canneal_big0.champsimtrace")
*** Reached end of trace: (4, "traces/canneal_big4.champsimtrace")
*** Reached end of trace: (3, "traces/canneal_big3.champsimtrace")
Heartbeat CPU 4 instructions: 360000001 cycles: 90003631 heartbeat IPC: 4 cumulative IPC: 4 (Simulation time: 04 hr 29 min 17 sec)
Heartbeat CPU 3 instructions: 360000001 cycles: 90003657 heartbeat IPC: 4 cumulative IPC: 4 (Simulation time: 04 hr 29 min 17 sec)
*** Reached end of trace: (2, "traces/canneal_big2.champsimtrace")
*** Reached end of trace: (7, "traces/canneal_big2.champsimtrace")
Heartbeat CPU 2 instructions: 360000001 cycles: 90003806 heartbeat IPC: 4 cumulative IPC: 4 (Simulation time: 04 hr 29 min 17 sec)
Heartbeat CPU 7 instructions: 360000001 cycles: 90003813 heartbeat IPC: 4 cumulative IPC: 4 (Simulation time: 04 hr 29 min 17 sec)
*** Reached end of trace: (4, "traces/canneal_big4.champsimtrace")
*** Reached end of trace: (3, "traces/canneal_big3.champsimtrace")
*** Reached end of trace: (2, "traces/canneal_big2.champsimtrace")
*** Reached end of trace: (7, "traces/canneal_big2.champsimtrace")
*** Reached end of trace: (0, "traces/canneal_big0.champsimtrace")
*** Reached end of trace: (5, "traces/canneal_big0.champsimtrace")
Heartbeat CPU 0 instructions: 210000045 cycles: 92306813 heartbeat IPC: 2.105 cumulative IPC: 2.121 (Simulation time: 04 hr 35 min 03 sec)
Heartbeat CPU 5 instructions: 210000045 cycles: 92306814 heartbeat IPC: 2.105 cumulative IPC: 2.124 (Simulation time: 04 hr 35 min 03 sec)
*** Reached end of trace: (4, "traces/canneal_big4.champsimtrace")
*** Reached end of trace: (3, "traces/canneal_big3.champsimtrace")
Heartbeat CPU 4 instructions: 370000001 cycles: 92503631 heartbeat IPC: 4 cumulative IPC: 4 (Simulation time: 04 hr 35 min 39 sec)
Heartbeat CPU 3 instructions: 370000001 cycles: 92503657 heartbeat IPC: 4 cumulative IPC: 4 (Simulation time: 04 hr 35 min 39 sec)
*** Reached end of trace: (2, "traces/canneal_big2.champsimtrace")
*** Reached end of trace: (7, "traces/canneal_big2.champsimtrace")
Heartbeat CPU 2 instructions: 370000001 cycles: 92503806 heartbeat IPC: 4 cumulative IPC: 4 (Simulation time: 04 hr 35 min 39 sec)
Heartbeat CPU 7 instructions: 370000001 cycles: 92503813 heartbeat IPC: 4 cumulative IPC: 4 (Simulation time: 04 hr 35 min 39 sec)
*** Reached end of trace: (4, "traces/canneal_big4.champsimtrace")
*** Reached end of trace: (3, "traces/canneal_big3.champsimtrace")
*** Reached end of trace: (2, "traces/canneal_big2.champsimtrace")
*** Reached end of trace: (7, "traces/canneal_big2.champsimtrace")
*** Reached end of trace: (0, "traces/canneal_big0.champsimtrace")
*** Reached end of trace: (5, "traces/canneal_big0.champsimtrace")
*** Reached end of trace: (4, "traces/canneal_big4.champsimtrace")
*** Reached end of trace: (3, "traces/canneal_big3.champsimtrace")
Heartbeat CPU 4 instructions: 380000001 cycles: 95003631 heartbeat IPC: 4 cumulative IPC: 4 (Simulation time: 04 hr 44 min 10 sec)
Heartbeat CPU 3 instructions: 380000001 cycles: 95003657 heartbeat IPC: 4 cumulative IPC: 4 (Simulation time: 04 hr 44 min 10 sec)
*** Reached end of trace: (2, "traces/canneal_big2.champsimtrace")
*** Reached end of trace: (7, "traces/canneal_big2.champsimtrace")
Heartbeat CPU 2 instructions: 380000001 cycles: 95003806 heartbeat IPC: 4 cumulative IPC: 4 (Simulation time: 04 hr 44 min 10 sec)
Heartbeat CPU 7 instructions: 380000001 cycles: 95003813 heartbeat IPC: 4 cumulative IPC: 4 (Simulation time: 04 hr 44 min 10 sec)
*** Reached end of trace: (4, "traces/canneal_big4.champsimtrace")
*** Reached end of trace: (3, "traces/canneal_big3.champsimtrace")
*** Reached end of trace: (2, "traces/canneal_big2.champsimtrace")
*** Reached end of trace: (7, "traces/canneal_big2.champsimtrace")
*** Reached end of trace: (5, "traces/canneal_big0.champsimtrace")
*** Reached end of trace: (0, "traces/canneal_big0.champsimtrace")
Heartbeat CPU 0 instructions: 220000046 cycles: 97038503 heartbeat IPC: 2.113 cumulative IPC: 2.121 (Simulation time: 04 hr 51 min 23 sec)
Heartbeat CPU 5 instructions: 220000046 cycles: 97038504 heartbeat IPC: 2.113 cumulative IPC: 2.123 (Simulation time: 04 hr 51 min 23 sec)
*** Reached end of trace: (4, "traces/canneal_big4.champsimtrace")
*** Reached end of trace: (3, "traces/canneal_big3.champsimtrace")
Heartbeat CPU 4 instructions: 390000001 cycles: 97503631 heartbeat IPC: 4 cumulative IPC: 4 (Simulation time: 04 hr 52 min 30 sec)
Heartbeat CPU 3 instructions: 390000001 cycles: 97503657 heartbeat IPC: 4 cumulative IPC: 4 (Simulation time: 04 hr 52 min 30 sec)
*** Reached end of trace: (2, "traces/canneal_big2.champsimtrace")
*** Reached end of trace: (7, "traces/canneal_big2.champsimtrace")
Heartbeat CPU 2 instructions: 390000001 cycles: 97503806 heartbeat IPC: 4 cumulative IPC: 4 (Simulation time: 04 hr 52 min 30 sec)
Heartbeat CPU 7 instructions: 390000001 cycles: 97503813 heartbeat IPC: 4 cumulative IPC: 4 (Simulation time: 04 hr 52 min 30 sec)
*** Reached end of trace: (4, "traces/canneal_big4.champsimtrace")
*** Reached end of trace: (3, "traces/canneal_big3.champsimtrace")
*** Reached end of trace: (2, "traces/canneal_big2.champsimtrace")
*** Reached end of trace: (7, "traces/canneal_big2.champsimtrace")
*** Reached end of trace: (0, "traces/canneal_big0.champsimtrace")
*** Reached end of trace: (5, "traces/canneal_big0.champsimtrace")
*** Reached end of trace: (4, "traces/canneal_big4.champsimtrace")
*** Reached end of trace: (3, "traces/canneal_big3.champsimtrace")
Heartbeat CPU 4 instructions: 400000001 cycles: 100003631 heartbeat IPC: 4 cumulative IPC: 4 (Simulation time: 04 hr 59 min 13 sec)
Heartbeat CPU 3 instructions: 400000001 cycles: 100003657 heartbeat IPC: 4 cumulative IPC: 4 (Simulation time: 04 hr 59 min 13 sec)
*** Reached end of trace: (2, "traces/canneal_big2.champsimtrace")
*** Reached end of trace: (7, "traces/canneal_big2.champsimtrace")
Heartbeat CPU 2 instructions: 400000001 cycles: 100003806 heartbeat IPC: 4 cumulative IPC: 4 (Simulation time: 04 hr 59 min 13 sec)
Heartbeat CPU 7 instructions: 400000001 cycles: 100003813 heartbeat IPC: 4 cumulative IPC: 4 (Simulation time: 04 hr 59 min 13 sec)
*** Reached end of trace: (4, "traces/canneal_big4.champsimtrace")
*** Reached end of trace: (3, "traces/canneal_big3.champsimtrace")
*** Reached end of trace: (2, "traces/canneal_big2.champsimtrace")
*** Reached end of trace: (7, "traces/canneal_big2.champsimtrace")
*** Reached end of trace: (0, "traces/canneal_big0.champsimtrace")
*** Reached end of trace: (5, "traces/canneal_big0.champsimtrace")
Heartbeat CPU 0 instructions: 230000049 cycles: 101747404 heartbeat IPC: 2.124 cumulative IPC: 2.121 (Simulation time: 05 hr 03 min 28 sec)
Heartbeat CPU 5 instructions: 230000049 cycles: 101747405 heartbeat IPC: 2.124 cumulative IPC: 2.123 (Simulation time: 05 hr 03 min 28 sec)
*** Reached end of trace: (4, "traces/canneal_big4.champsimtrace")
*** Reached end of trace: (3, "traces/canneal_big3.champsimtrace")
Heartbeat CPU 4 instructions: 410000001 cycles: 102503631 heartbeat IPC: 4 cumulative IPC: 4 (Simulation time: 05 hr 05 min 23 sec)
Heartbeat CPU 3 instructions: 410000001 cycles: 102503657 heartbeat IPC: 4 cumulative IPC: 4 (Simulation time: 05 hr 05 min 23 sec)
*** Reached end of trace: (2, "traces/canneal_big2.champsimtrace")
*** Reached end of trace: (7, "traces/canneal_big2.champsimtrace")
Heartbeat CPU 2 instructions: 410000001 cycles: 102503806 heartbeat IPC: 4 cumulative IPC: 4 (Simulation time: 05 hr 05 min 23 sec)
Heartbeat CPU 7 instructions: 410000001 cycles: 102503813 heartbeat IPC: 4 cumulative IPC: 4 (Simulation time: 05 hr 05 min 23 sec)
*** Reached end of trace: (4, "traces/canneal_big4.champsimtrace")
*** Reached end of trace: (3, "traces/canneal_big3.champsimtrace")
*** Reached end of trace: (2, "traces/canneal_big2.champsimtrace")
*** Reached end of trace: (7, "traces/canneal_big2.champsimtrace")
*** Reached end of trace: (0, "traces/canneal_big0.champsimtrace")
*** Reached end of trace: (5, "traces/canneal_big0.champsimtrace")
*** Reached end of trace: (4, "traces/canneal_big4.champsimtrace")
*** Reached end of trace: (3, "traces/canneal_big3.champsimtrace")
Heartbeat CPU 4 instructions: 420000001 cycles: 105003631 heartbeat IPC: 4 cumulative IPC: 4 (Simulation time: 05 hr 13 min 14 sec)
Heartbeat CPU 3 instructions: 420000001 cycles: 105003657 heartbeat IPC: 4 cumulative IPC: 4 (Simulation time: 05 hr 13 min 14 sec)
*** Reached end of trace: (2, "traces/canneal_big2.champsimtrace")
*** Reached end of trace: (7, "traces/canneal_big2.champsimtrace")
Heartbeat CPU 2 instructions: 420000001 cycles: 105003806 heartbeat IPC: 4 cumulative IPC: 4 (Simulation time: 05 hr 13 min 14 sec)
Heartbeat CPU 7 instructions: 420000001 cycles: 105003813 heartbeat IPC: 4 cumulative IPC: 4 (Simulation time: 05 hr 13 min 14 sec)
*** Reached end of trace: (4, "traces/canneal_big4.champsimtrace")
*** Reached end of trace: (3, "traces/canneal_big3.champsimtrace")
*** Reached end of trace: (2, "traces/canneal_big2.champsimtrace")
*** Reached end of trace: (7, "traces/canneal_big2.champsimtrace")
*** Reached end of trace: (0, "traces/canneal_big0.champsimtrace")
*** Reached end of trace: (5, "traces/canneal_big0.champsimtrace")
Heartbeat CPU 0 instructions: 240000052 cycles: 106457240 heartbeat IPC: 2.123 cumulative IPC: 2.121 (Simulation time: 05 hr 17 min 35 sec)
Heartbeat CPU 5 instructions: 240000052 cycles: 106457241 heartbeat IPC: 2.123 cumulative IPC: 2.123 (Simulation time: 05 hr 17 min 35 sec)
*** Reached end of trace: (4, "traces/canneal_big4.champsimtrace")
*** Reached end of trace: (3, "traces/canneal_big3.champsimtrace")
Heartbeat CPU 4 instructions: 430000001 cycles: 107503631 heartbeat IPC: 4 cumulative IPC: 4 (Simulation time: 05 hr 20 min 42 sec)
Heartbeat CPU 3 instructions: 430000001 cycles: 107503657 heartbeat IPC: 4 cumulative IPC: 4 (Simulation time: 05 hr 20 min 42 sec)
*** Reached end of trace: (2, "traces/canneal_big2.champsimtrace")
*** Reached end of trace: (7, "traces/canneal_big2.champsimtrace")
Heartbeat CPU 2 instructions: 430000001 cycles: 107503806 heartbeat IPC: 4 cumulative IPC: 4 (Simulation time: 05 hr 20 min 42 sec)
Heartbeat CPU 7 instructions: 430000001 cycles: 107503813 heartbeat IPC: 4 cumulative IPC: 4 (Simulation time: 05 hr 20 min 42 sec)
*** Reached end of trace: (6, "traces/canneal_big1.champsimtrace")
*** Reached end of trace: (1, "traces/canneal_big1.champsimtrace")
Heartbeat CPU 6 instructions: 70000012 cycles: 108004444 heartbeat IPC: 0.2544 cumulative IPC: 0.2568 (Simulation time: 05 hr 22 min 11 sec)
Heartbeat CPU 1 instructions: 70000012 cycles: 108004445 heartbeat IPC: 0.2544 cumulative IPC: 0.2553 (Simulation time: 05 hr 22 min 11 sec)
*** Reached end of trace: (4, "traces/canneal_big4.champsimtrace")
*** Reached end of trace: (3, "traces/canneal_big3.champsimtrace")
*** Reached end of trace: (2, "traces/canneal_big2.champsimtrace")
*** Reached end of trace: (7, "traces/canneal_big2.champsimtrace")
*** Reached end of trace: (0, "traces/canneal_big0.champsimtrace")
*** Reached end of trace: (5, "traces/canneal_big0.champsimtrace")
*** Reached end of trace: (4, "traces/canneal_big4.champsimtrace")
*** Reached end of trace: (3, "traces/canneal_big3.champsimtrace")
Heartbeat CPU 4 instructions: 440000001 cycles: 110003631 heartbeat IPC: 4 cumulative IPC: 4 (Simulation time: 05 hr 27 min 05 sec)
Heartbeat CPU 3 instructions: 440000001 cycles: 110003657 heartbeat IPC: 4 cumulative IPC: 4 (Simulation time: 05 hr 27 min 05 sec)
*** Reached end of trace: (2, "traces/canneal_big2.champsimtrace")
*** Reached end of trace: (7, "traces/canneal_big2.champsimtrace")
Heartbeat CPU 2 instructions: 440000001 cycles: 110003806 heartbeat IPC: 4 cumulative IPC: 4 (Simulation time: 05 hr 27 min 05 sec)
Heartbeat CPU 7 instructions: 440000001 cycles: 110003813 heartbeat IPC: 4 cumulative IPC: 4 (Simulation time: 05 hr 27 min 05 sec)
*** Reached end of trace: (0, "traces/canneal_big0.champsimtrace")
*** Reached end of trace: (5, "traces/canneal_big0.champsimtrace")
Heartbeat CPU 0 instructions: 250000055 cycles: 111214911 heartbeat IPC: 2.102 cumulative IPC: 2.12 (Simulation time: 05 hr 29 min 59 sec)
Heartbeat CPU 5 instructions: 250000055 cycles: 111214912 heartbeat IPC: 2.102 cumulative IPC: 2.122 (Simulation time: 05 hr 29 min 59 sec)
*** Reached end of trace: (4, "traces/canneal_big4.champsimtrace")
*** Reached end of trace: (3, "traces/canneal_big3.champsimtrace")
*** Reached end of trace: (2, "traces/canneal_big2.champsimtrace")
*** Reached end of trace: (7, "traces/canneal_big2.champsimtrace")
*** Reached end of trace: (4, "traces/canneal_big4.champsimtrace")
*** Reached end of trace: (3, "traces/canneal_big3.champsimtrace")
Heartbeat CPU 4 instructions: 450000001 cycles: 112503631 heartbeat IPC: 4 cumulative IPC: 4 (Simulation time: 05 hr 34 min 07 sec)
Heartbeat CPU 3 instructions: 450000001 cycles: 112503657 heartbeat IPC: 4 cumulative IPC: 4 (Simulation time: 05 hr 34 min 07 sec)
*** Reached end of trace: (2, "traces/canneal_big2.champsimtrace")
*** Reached end of trace: (7, "traces/canneal_big2.champsimtrace")
Heartbeat CPU 2 instructions: 450000001 cycles: 112503806 heartbeat IPC: 4 cumulative IPC: 4 (Simulation time: 05 hr 34 min 07 sec)
Heartbeat CPU 7 instructions: 450000001 cycles: 112503813 heartbeat IPC: 4 cumulative IPC: 4 (Simulation time: 05 hr 34 min 07 sec)
*** Reached end of trace: (0, "traces/canneal_big0.champsimtrace")
*** Reached end of trace: (5, "traces/canneal_big0.champsimtrace")
*** Reached end of trace: (4, "traces/canneal_big4.champsimtrace")
*** Reached end of trace: (3, "traces/canneal_big3.champsimtrace")
*** Reached end of trace: (2, "traces/canneal_big2.champsimtrace")
*** Reached end of trace: (7, "traces/canneal_big2.champsimtrace")
*** Reached end of trace: (4, "traces/canneal_big4.champsimtrace")
*** Reached end of trace: (3, "traces/canneal_big3.champsimtrace")
Heartbeat CPU 4 instructions: 460000001 cycles: 115003631 heartbeat IPC: 4 cumulative IPC: 4 (Simulation time: 05 hr 43 min 20 sec)
Heartbeat CPU 3 instructions: 460000001 cycles: 115003657 heartbeat IPC: 4 cumulative IPC: 4 (Simulation time: 05 hr 43 min 20 sec)
*** Reached end of trace: (2, "traces/canneal_big2.champsimtrace")
*** Reached end of trace: (7, "traces/canneal_big2.champsimtrace")
Heartbeat CPU 2 instructions: 460000001 cycles: 115003806 heartbeat IPC: 4 cumulative IPC: 4 (Simulation time: 05 hr 43 min 20 sec)
Heartbeat CPU 7 instructions: 460000001 cycles: 115003813 heartbeat IPC: 4 cumulative IPC: 4 (Simulation time: 05 hr 43 min 20 sec)
*** Reached end of trace: (0, "traces/canneal_big0.champsimtrace")
*** Reached end of trace: (5, "traces/canneal_big0.champsimtrace")
Heartbeat CPU 0 instructions: 260000055 cycles: 115957695 heartbeat IPC: 2.108 cumulative IPC: 2.119 (Simulation time: 05 hr 46 min 39 sec)
Heartbeat CPU 5 instructions: 260000055 cycles: 115957696 heartbeat IPC: 2.108 cumulative IPC: 2.121 (Simulation time: 05 hr 46 min 39 sec)
*** Reached end of trace: (4, "traces/canneal_big4.champsimtrace")
*** Reached end of trace: (3, "traces/canneal_big3.champsimtrace")
*** Reached end of trace: (2, "traces/canneal_big2.champsimtrace")
*** Reached end of trace: (7, "traces/canneal_big2.champsimtrace")
*** Reached end of trace: (4, "traces/canneal_big4.champsimtrace")
*** Reached end of trace: (3, "traces/canneal_big3.champsimtrace")
Heartbeat CPU 4 instructions: 470000001 cycles: 117503631 heartbeat IPC: 4 cumulative IPC: 4 (Simulation time: 05 hr 52 min 14 sec)
Heartbeat CPU 3 instructions: 470000001 cycles: 117503657 heartbeat IPC: 4 cumulative IPC: 4 (Simulation time: 05 hr 52 min 14 sec)
*** Reached end of trace: (2, "traces/canneal_big2.champsimtrace")
*** Reached end of trace: (7, "traces/canneal_big2.champsimtrace")
Heartbeat CPU 2 instructions: 470000001 cycles: 117503806 heartbeat IPC: 4 cumulative IPC: 4 (Simulation time: 05 hr 52 min 14 sec)
Heartbeat CPU 7 instructions: 470000001 cycles: 117503813 heartbeat IPC: 4 cumulative IPC: 4 (Simulation time: 05 hr 52 min 14 sec)
*** Reached end of trace: (0, "traces/canneal_big0.champsimtrace")
*** Reached end of trace: (5, "traces/canneal_big0.champsimtrace")
*** Reached end of trace: (4, "traces/canneal_big4.champsimtrace")
*** Reached end of trace: (3, "traces/canneal_big3.champsimtrace")
*** Reached end of trace: (2, "traces/canneal_big2.champsimtrace")
*** Reached end of trace: (7, "traces/canneal_big2.champsimtrace")
*** Reached end of trace: (4, "traces/canneal_big4.champsimtrace")
*** Reached end of trace: (3, "traces/canneal_big3.champsimtrace")
Heartbeat CPU 4 instructions: 480000001 cycles: 120003631 heartbeat IPC: 4 cumulative IPC: 4 (Simulation time: 05 hr 59 min 37 sec)
Heartbeat CPU 3 instructions: 480000001 cycles: 120003657 heartbeat IPC: 4 cumulative IPC: 4 (Simulation time: 05 hr 59 min 37 sec)
*** Reached end of trace: (2, "traces/canneal_big2.champsimtrace")
*** Reached end of trace: (7, "traces/canneal_big2.champsimtrace")
Heartbeat CPU 2 instructions: 480000001 cycles: 120003806 heartbeat IPC: 4 cumulative IPC: 4 (Simulation time: 05 hr 59 min 37 sec)
Heartbeat CPU 7 instructions: 480000001 cycles: 120003813 heartbeat IPC: 4 cumulative IPC: 4 (Simulation time: 05 hr 59 min 37 sec)
*** Reached end of trace: (0, "traces/canneal_big0.champsimtrace")
*** Reached end of trace: (5, "traces/canneal_big0.champsimtrace")
Heartbeat CPU 0 instructions: 270000056 cycles: 120669044 heartbeat IPC: 2.123 cumulative IPC: 2.119 (Simulation time: 06 hr 01 min 10 sec)
Heartbeat CPU 5 instructions: 270000056 cycles: 120669045 heartbeat IPC: 2.123 cumulative IPC: 2.121 (Simulation time: 06 hr 01 min 10 sec)
*** Reached end of trace: (4, "traces/canneal_big4.champsimtrace")
*** Reached end of trace: (3, "traces/canneal_big3.champsimtrace")
*** Reached end of trace: (2, "traces/canneal_big2.champsimtrace")
*** Reached end of trace: (7, "traces/canneal_big2.champsimtrace")
*** Reached end of trace: (4, "traces/canneal_big4.champsimtrace")
*** Reached end of trace: (3, "traces/canneal_big3.champsimtrace")
Heartbeat CPU 4 instructions: 490000001 cycles: 122503631 heartbeat IPC: 4 cumulative IPC: 4 (Simulation time: 06 hr 06 min 10 sec)
Heartbeat CPU 3 instructions: 490000001 cycles: 122503657 heartbeat IPC: 4 cumulative IPC: 4 (Simulation time: 06 hr 06 min 10 sec)
*** Reached end of trace: (2, "traces/canneal_big2.champsimtrace")
*** Reached end of trace: (7, "traces/canneal_big2.champsimtrace")
Heartbeat CPU 2 instructions: 490000001 cycles: 122503806 heartbeat IPC: 4 cumulative IPC: 4 (Simulation time: 06 hr 06 min 11 sec)
Heartbeat CPU 7 instructions: 490000001 cycles: 122503813 heartbeat IPC: 4 cumulative IPC: 4 (Simulation time: 06 hr 06 min 11 sec)
*** Reached end of trace: (5, "traces/canneal_big0.champsimtrace")
*** Reached end of trace: (0, "traces/canneal_big0.champsimtrace")
*** Reached end of trace: (4, "traces/canneal_big4.champsimtrace")
*** Reached end of trace: (3, "traces/canneal_big3.champsimtrace")
*** Reached end of trace: (2, "traces/canneal_big2.champsimtrace")
*** Reached end of trace: (7, "traces/canneal_big2.champsimtrace")
*** Reached end of trace: (4, "traces/canneal_big4.champsimtrace")
*** Reached end of trace: (3, "traces/canneal_big3.champsimtrace")
Heartbeat CPU 4 instructions: 500000001 cycles: 125003631 heartbeat IPC: 4 cumulative IPC: 4 (Simulation time: 06 hr 14 min 23 sec)
Heartbeat CPU 3 instructions: 500000001 cycles: 125003657 heartbeat IPC: 4 cumulative IPC: 4 (Simulation time: 06 hr 14 min 23 sec)
*** Reached end of trace: (2, "traces/canneal_big2.champsimtrace")
*** Reached end of trace: (7, "traces/canneal_big2.champsimtrace")
Heartbeat CPU 2 instructions: 500000001 cycles: 125003806 heartbeat IPC: 4 cumulative IPC: 4 (Simulation time: 06 hr 14 min 23 sec)
Heartbeat CPU 7 instructions: 500000001 cycles: 125003813 heartbeat IPC: 4 cumulative IPC: 4 (Simulation time: 06 hr 14 min 23 sec)
*** Reached end of trace: (0, "traces/canneal_big0.champsimtrace")
*** Reached end of trace: (5, "traces/canneal_big0.champsimtrace")
Heartbeat CPU 0 instructions: 280000059 cycles: 125384225 heartbeat IPC: 2.121 cumulative IPC: 2.12 (Simulation time: 06 hr 15 min 43 sec)
Heartbeat CPU 5 instructions: 280000059 cycles: 125384226 heartbeat IPC: 2.121 cumulative IPC: 2.121 (Simulation time: 06 hr 15 min 43 sec)
*** Reached end of trace: (4, "traces/canneal_big4.champsimtrace")
*** Reached end of trace: (3, "traces/canneal_big3.champsimtrace")
*** Reached end of trace: (2, "traces/canneal_big2.champsimtrace")
*** Reached end of trace: (7, "traces/canneal_big2.champsimtrace")
*** Reached end of trace: (4, "traces/canneal_big4.champsimtrace")
*** Reached end of trace: (3, "traces/canneal_big3.champsimtrace")
Heartbeat CPU 4 instructions: 510000001 cycles: 127503631 heartbeat IPC: 4 cumulative IPC: 4 (Simulation time: 06 hr 23 min 14 sec)
Heartbeat CPU 3 instructions: 510000001 cycles: 127503657 heartbeat IPC: 4 cumulative IPC: 4 (Simulation time: 06 hr 23 min 14 sec)
*** Reached end of trace: (2, "traces/canneal_big2.champsimtrace")
*** Reached end of trace: (7, "traces/canneal_big2.champsimtrace")
Heartbeat CPU 2 instructions: 510000001 cycles: 127503806 heartbeat IPC: 4 cumulative IPC: 4 (Simulation time: 06 hr 23 min 14 sec)
Heartbeat CPU 7 instructions: 510000001 cycles: 127503813 heartbeat IPC: 4 cumulative IPC: 4 (Simulation time: 06 hr 23 min 14 sec)
*** Reached end of trace: (6, "traces/canneal_big1.champsimtrace")
*** Reached end of trace: (1, "traces/canneal_big1.champsimtrace")
*** Reached end of trace: (0, "traces/canneal_big0.champsimtrace")
*** Reached end of trace: (5, "traces/canneal_big0.champsimtrace")
*** Reached end of trace: (4, "traces/canneal_big4.champsimtrace")
*** Reached end of trace: (3, "traces/canneal_big3.champsimtrace")
*** Reached end of trace: (2, "traces/canneal_big2.champsimtrace")
*** Reached end of trace: (7, "traces/canneal_big2.champsimtrace")
*** Reached end of trace: (4, "traces/canneal_big4.champsimtrace")
*** Reached end of trace: (3, "traces/canneal_big3.champsimtrace")
Heartbeat CPU 4 instructions: 520000001 cycles: 130003631 heartbeat IPC: 4 cumulative IPC: 4 (Simulation time: 06 hr 30 min 33 sec)
Heartbeat CPU 3 instructions: 520000001 cycles: 130003657 heartbeat IPC: 4 cumulative IPC: 4 (Simulation time: 06 hr 30 min 33 sec)
*** Reached end of trace: (2, "traces/canneal_big2.champsimtrace")
*** Reached end of trace: (7, "traces/canneal_big2.champsimtrace")
Heartbeat CPU 2 instructions: 520000001 cycles: 130003806 heartbeat IPC: 4 cumulative IPC: 4 (Simulation time: 06 hr 30 min 33 sec)
Heartbeat CPU 7 instructions: 520000001 cycles: 130003813 heartbeat IPC: 4 cumulative IPC: 4 (Simulation time: 06 hr 30 min 33 sec)
*** Reached end of trace: (0, "traces/canneal_big0.champsimtrace")
*** Reached end of trace: (5, "traces/canneal_big0.champsimtrace")
Heartbeat CPU 0 instructions: 290000062 cycles: 130122361 heartbeat IPC: 2.111 cumulative IPC: 2.119 (Simulation time: 06 hr 30 min 50 sec)
Heartbeat CPU 5 instructions: 290000062 cycles: 130122362 heartbeat IPC: 2.111 cumulative IPC: 2.12 (Simulation time: 06 hr 30 min 50 sec)
*** Reached end of trace: (4, "traces/canneal_big4.champsimtrace")
*** Reached end of trace: (3, "traces/canneal_big3.champsimtrace")
*** Reached end of trace: (2, "traces/canneal_big2.champsimtrace")
*** Reached end of trace: (7, "traces/canneal_big2.champsimtrace")
*** Reached end of trace: (0, "traces/canneal_big0.champsimtrace")
*** Reached end of trace: (5, "traces/canneal_big0.champsimtrace")
*** Reached end of trace: (4, "traces/canneal_big4.champsimtrace")
*** Reached end of trace: (3, "traces/canneal_big3.champsimtrace")
Heartbeat CPU 4 instructions: 530000001 cycles: 132503631 heartbeat IPC: 4 cumulative IPC: 4 (Simulation time: 06 hr 37 min 13 sec)
Heartbeat CPU 3 instructions: 530000001 cycles: 132503657 heartbeat IPC: 4 cumulative IPC: 4 (Simulation time: 06 hr 37 min 13 sec)
*** Reached end of trace: (2, "traces/canneal_big2.champsimtrace")
*** Reached end of trace: (7, "traces/canneal_big2.champsimtrace")
Heartbeat CPU 2 instructions: 530000001 cycles: 132503806 heartbeat IPC: 4 cumulative IPC: 4 (Simulation time: 06 hr 37 min 13 sec)
Heartbeat CPU 7 instructions: 530000001 cycles: 132503813 heartbeat IPC: 4 cumulative IPC: 4 (Simulation time: 06 hr 37 min 13 sec)
*** Reached end of trace: (4, "traces/canneal_big4.champsimtrace")
*** Reached end of trace: (3, "traces/canneal_big3.champsimtrace")
*** Reached end of trace: (2, "traces/canneal_big2.champsimtrace")
*** Reached end of trace: (7, "traces/canneal_big2.champsimtrace")
*** Reached end of trace: (0, "traces/canneal_big0.champsimtrace")
*** Reached end of trace: (5, "traces/canneal_big0.champsimtrace")
Heartbeat CPU 0 instructions: 300000062 cycles: 134861708 heartbeat IPC: 2.11 cumulative IPC: 2.119 (Simulation time: 06 hr 45 min 20 sec)
Heartbeat CPU 5 instructions: 300000062 cycles: 134861709 heartbeat IPC: 2.11 cumulative IPC: 2.12 (Simulation time: 06 hr 45 min 20 sec)
[...]
cpu5->cpu5_DTLB PREFETCH REQUESTED:          0 ISSUED:          0 USEFUL:          0 USELESS:          0
cpu5->cpu5_DTLB AVERAGE MISS LATENCY: 4.036 cycles
cpu5_DTLB COHERENCE INVALIDATIONS:          0
cpu5_DTLB COHERENCE WRITE-HIT OTHER-SHARER EVENTS:          0
cpu4_STLB COHERENCE INVALIDATIONS:          0
cpu4_STLB COHERENCE WRITE-HIT OTHER-SHARER EVENTS:          0
cpu4_L2C COHERENCE INVALIDATIONS:          0
cpu4_L2C COHERENCE WRITE-HIT OTHER-SHARER EVENTS:          0
cpu4->cpu4_L1I TOTAL        ACCESS:  210710536 HIT:  210710536 MISS:          0 MSHR_MERGE:          0
cpu4->cpu4_L1I LOAD         ACCESS:  210710536 HIT:  210710536 MISS:          0 MSHR_MERGE:          0
cpu4->cpu4_L1I RFO          ACCESS:          0 HIT:          0 MISS:          0 MSHR_MERGE:          0
cpu4->cpu4_L1I PREFETCH     ACCESS:          0 HIT:          0 MISS:          0 MSHR_MERGE:          0
cpu4->cpu4_L1I WRITE        ACCESS:          0 HIT:          0 MISS:          0 MSHR_MERGE:          0
cpu4->cpu4_L1I TRANSLATION  ACCESS:          0 HIT:          0 MISS:          0 MSHR_MERGE:          0
cpu4->cpu4_L1I PREFETCH REQUESTED:          0 ISSUED:          0 USEFUL:          0 USELESS:          0
cpu4->cpu4_L1I AVERAGE MISS LATENCY: - cycles
cpu4_L1I COHERENCE INVALIDATIONS:          0
cpu4_L1I COHERENCE WRITE-HIT OTHER-SHARER EVENTS:          0
cpu4_L1D COHERENCE INVALIDATIONS:          0
cpu4_L1D COHERENCE WRITE-HIT OTHER-SHARER EVENTS:          0
cpu4->cpu4_ITLB TOTAL        ACCESS:  175234510 HIT:  175234510 MISS:          0 MSHR_MERGE:          0
cpu4->cpu4_ITLB LOAD         ACCESS:  175234510 HIT:  175234510 MISS:          0 MSHR_MERGE:          0
cpu4->cpu4_ITLB RFO          ACCESS:          0 HIT:          0 MISS:          0 MSHR_MERGE:          0
cpu4->cpu4_ITLB PREFETCH     ACCESS:          0 HIT:          0 MISS:          0 MSHR_MERGE:          0
cpu4->cpu4_ITLB WRITE        ACCESS:          0 HIT:          0 MISS:          0 MSHR_MERGE:          0
cpu4->cpu4_ITLB TRANSLATION  ACCESS:          0 HIT:          0 MISS:          0 MSHR_MERGE:          0
cpu4->cpu4_ITLB PREFETCH REQUESTED:          0 ISSUED:          0 USEFUL:          0 USELESS:          0
cpu4->cpu4_ITLB AVERAGE MISS LATENCY: - cycles
cpu4_ITLB COHERENCE INVALIDATIONS:          0
cpu4_ITLB COHERENCE WRITE-HIT OTHER-SHARER EVENTS:          0
cpu4_DTLB COHERENCE INVALIDATIONS:          0
cpu4_DTLB COHERENCE WRITE-HIT OTHER-SHARER EVENTS:          0
cpu3_STLB COHERENCE INVALIDATIONS:          0
cpu3_STLB COHERENCE WRITE-HIT OTHER-SHARER EVENTS:          0
cpu3_L2C COHERENCE INVALIDATIONS:          0
cpu3_L2C COHERENCE WRITE-HIT OTHER-SHARER EVENTS:          0
cpu3->cpu3_L1I TOTAL        ACCESS:  225436513 HIT:  225436513 MISS:          0 MSHR_MERGE:          0
cpu3->cpu3_L1I LOAD         ACCESS:  225436513 HIT:  225436513 MISS:          0 MSHR_MERGE:          0
cpu3->cpu3_L1I RFO          ACCESS:          0 HIT:          0 MISS:          0 MSHR_MERGE:          0
cpu3->cpu3_L1I PREFETCH     ACCESS:          0 HIT:          0 MISS:          0 MSHR_MERGE:          0
cpu3->cpu3_L1I WRITE        ACCESS:          0 HIT:          0 MISS:          0 MSHR_MERGE:          0
cpu3->cpu3_L1I TRANSLATION  ACCESS:          0 HIT:          0 MISS:          0 MSHR_MERGE:          0
cpu3->cpu3_L1I PREFETCH REQUESTED:          0 ISSUED:          0 USEFUL:          0 USELESS:          0
cpu3->cpu3_L1I AVERAGE MISS LATENCY: - cycles
cpu3_L1I COHERENCE INVALIDATIONS:          0
cpu3_L1I COHERENCE WRITE-HIT OTHER-SHARER EVENTS:          0
cpu3_L1D COHERENCE INVALIDATIONS:          0
cpu3_L1D COHERENCE WRITE-HIT OTHER-SHARER EVENTS:          0
cpu3->cpu3_ITLB TOTAL        ACCESS:  188155684 HIT:  188155684 MISS:          0 MSHR_MERGE:          0
cpu3->cpu3_ITLB LOAD         ACCESS:  188155684 HIT:  188155684 MISS:          0 MSHR_MERGE:          0
cpu3->cpu3_ITLB RFO          ACCESS:          0 HIT:          0 MISS:          0 MSHR_MERGE:          0
cpu3->cpu3_ITLB PREFETCH     ACCESS:          0 HIT:          0 MISS:          0 MSHR_MERGE:          0
cpu3->cpu3_ITLB WRITE        ACCESS:          0 HIT:          0 MISS:          0 MSHR_MERGE:          0
cpu3->cpu3_ITLB TRANSLATION  ACCESS:          0 HIT:          0 MISS:          0 MSHR_MERGE:          0
cpu3->cpu3_ITLB PREFETCH REQUESTED:          0 ISSUED:          0 USEFUL:          0 USELESS:          0
cpu3->cpu3_ITLB AVERAGE MISS LATENCY: - cycles
cpu3_ITLB COHERENCE INVALIDATIONS:          0
cpu3_ITLB COHERENCE WRITE-HIT OTHER-SHARER EVENTS:          0
cpu3_DTLB COHERENCE INVALIDATIONS:          0
cpu3_DTLB COHERENCE WRITE-HIT OTHER-SHARER EVENTS:          0
cpu2_STLB COHERENCE INVALIDATIONS:          0
cpu2_STLB COHERENCE WRITE-HIT OTHER-SHARER EVENTS:          0
cpu2_L2C COHERENCE INVALIDATIONS:          0
cpu2_L2C COHERENCE WRITE-HIT OTHER-SHARER EVENTS:          0
cpu2->cpu2_L1I TOTAL        ACCESS:  207551896 HIT:  207551896 MISS:          0 MSHR_MERGE:          0
cpu2->cpu2_L1I LOAD         ACCESS:  207551896 HIT:  207551896 MISS:          0 MSHR_MERGE:          0
cpu2->cpu2_L1I RFO          ACCESS:          0 HIT:          0 MISS:          0 MSHR_MERGE:          0
cpu2->cpu2_L1I PREFETCH     ACCESS:          0 HIT:          0 MISS:          0 MSHR_MERGE:          0
cpu2->cpu2_L1I WRITE        ACCESS:          0 HIT:          0 MISS:          0 MSHR_MERGE:          0
cpu2->cpu2_L1I TRANSLATION  ACCESS:          0 HIT:          0 MISS:          0 MSHR_MERGE:          0
cpu2->cpu2_L1I PREFETCH REQUESTED:          0 ISSUED:          0 USEFUL:          0 USELESS:          0
cpu2->cpu2_L1I AVERAGE MISS LATENCY: - cycles
cpu2_L1I COHERENCE INVALIDATIONS:          0
cpu2_L1I COHERENCE WRITE-HIT OTHER-SHARER EVENTS:          0
cpu2_L1D COHERENCE INVALIDATIONS:          0
cpu2_L1D COHERENCE WRITE-HIT OTHER-SHARER EVENTS:          0
cpu2->cpu2_ITLB TOTAL        ACCESS:  180479508 HIT:  180479508 MISS:          0 MSHR_MERGE:          0
cpu2->cpu2_ITLB LOAD         ACCESS:  180479508 HIT:  180479508 MISS:          0 MSHR_MERGE:          0
cpu2->cpu2_ITLB RFO          ACCESS:          0 HIT:          0 MISS:          0 MSHR_MERGE:          0
cpu2->cpu2_ITLB PREFETCH     ACCESS:          0 HIT:          0 MISS:          0 MSHR_MERGE:          0
cpu2->cpu2_ITLB WRITE        ACCESS:          0 HIT:          0 MISS:          0 MSHR_MERGE:          0
cpu2->cpu2_ITLB TRANSLATION  ACCESS:          0 HIT:          0 MISS:          0 MSHR_MERGE:          0
cpu2->cpu2_ITLB PREFETCH REQUESTED:          0 ISSUED:          0 USEFUL:          0 USELESS:          0
cpu2->cpu2_ITLB AVERAGE MISS LATENCY: - cycles
cpu2_ITLB COHERENCE INVALIDATIONS:          0
cpu2_ITLB COHERENCE WRITE-HIT OTHER-SHARER EVENTS:          0
cpu2_DTLB COHERENCE INVALIDATIONS:          0
cpu2_DTLB COHERENCE WRITE-HIT OTHER-SHARER EVENTS:          0
cpu1->cpu1_STLB TOTAL        ACCESS:    2220554 HIT:    2024325 MISS:     196229 MSHR_MERGE:          0
cpu1->cpu1_STLB LOAD         ACCESS:    2220554 HIT:    2024325 MISS:     196229 MSHR_MERGE:          0
cpu1->cpu1_STLB RFO          ACCESS:          0 HIT:          0 MISS:          0 MSHR_MERGE:          0
cpu1->cpu1_STLB PREFETCH     ACCESS:          0 HIT:          0 MISS:          0 MSHR_MERGE:          0
cpu1->cpu1_STLB WRITE        ACCESS:          0 HIT:          0 MISS:          0 MSHR_MERGE:          0
cpu1->cpu1_STLB TRANSLATION  ACCESS:          0 HIT:          0 MISS:          0 MSHR_MERGE:          0
cpu1->cpu1_STLB PREFETCH REQUESTED:          0 ISSUED:          0 USEFUL:          0 USELESS:          0
cpu1->cpu1_STLB AVERAGE MISS LATENCY: 639.1 cycles
cpu1_STLB COHERENCE INVALIDATIONS:          0
cpu1_STLB COHERENCE WRITE-HIT OTHER-SHARER EVENTS:          0
cpu1->cpu1_L2C TOTAL        ACCESS:    2352647 HIT:     415336 MISS:    1937311 MSHR_MERGE:          0
cpu1->cpu1_L2C LOAD         ACCESS:    1963804 HIT:     414216 MISS:    1549588 MSHR_MERGE:          0
cpu1->cpu1_L2C RFO          ACCESS:          0 HIT:          0 MISS:          0 MSHR_MERGE:          0
cpu1->cpu1_L2C PREFETCH     ACCESS:          0 HIT:          0 MISS:          0 MSHR_MERGE:          0
cpu1->cpu1_L2C WRITE        ACCESS:          0 HIT:          0 MISS:          0 MSHR_MERGE:          0
cpu1->cpu1_L2C TRANSLATION  ACCESS:     388843 HIT:       1120 MISS:     387723 MSHR_MERGE:          0
cpu1->cpu1_L2C PREFETCH REQUESTED:          0 ISSUED:          0 USEFUL:          0 USELESS:          0
cpu1->cpu1_L2C AVERAGE MISS LATENCY: 281.6 cycles
cpu1_L2C COHERENCE INVALIDATIONS:          0
cpu1_L2C COHERENCE WRITE-HIT OTHER-SHARER EVENTS:          0
cpu1->cpu1_L1I TOTAL        ACCESS:   33765855 HIT:   31618832 MISS:    2147023 MSHR_MERGE:     183219
cpu1->cpu1_L1I LOAD         ACCESS:   33765855 HIT:   31618832 MISS:    2147023 MSHR_MERGE:     183219
cpu1->cpu1_L1I RFO          ACCESS:          0 HIT:          0 MISS:          0 MSHR_MERGE:          0
cpu1->cpu1_L1I PREFETCH     ACCESS:          0 HIT:          0 MISS:          0 MSHR_MERGE:          0
cpu1->cpu1_L1I WRITE        ACCESS:          0 HIT:          0 MISS:          0 MSHR_MERGE:          0
cpu1->cpu1_L1I TRANSLATION  ACCESS:          0 HIT:          0 MISS:          0 MSHR_MERGE:          0
cpu1->cpu1_L1I PREFETCH REQUESTED:          0 ISSUED:          0 USEFUL:          0 USELESS:          0
cpu1->cpu1_L1I AVERAGE MISS LATENCY: 224.5 cycles
cpu1_L1I COHERENCE INVALIDATIONS:          0
cpu1_L1I COHERENCE WRITE-HIT OTHER-SHARER EVENTS:          0
cpu1->cpu1_L1D TOTAL        ACCESS:     392594 HIT:       3751 MISS:     388843 MSHR_MERGE:          0
cpu1->cpu1_L1D LOAD         ACCESS:          0 HIT:          0 MISS:          0 MSHR_MERGE:          0
cpu1->cpu1_L1D RFO          ACCESS:          0 HIT:          0 MISS:          0 MSHR_MERGE:          0
cpu1->cpu1_L1D PREFETCH     ACCESS:          0 HIT:          0 MISS:          0 MSHR_MERGE:          0
cpu1->cpu1_L1D WRITE        ACCESS:          0 HIT:          0 MISS:          0 MSHR_MERGE:          0
cpu1->cpu1_L1D TRANSLATION  ACCESS:     392594 HIT:       3751 MISS:     388843 MSHR_MERGE:          0
cpu1->cpu1_L1D PREFETCH REQUESTED:          0 ISSUED:          0 USEFUL:          0 USELESS:          0
cpu1->cpu1_L1D AVERAGE MISS LATENCY: 316.5 cycles
cpu1_L1D COHERENCE INVALIDATIONS:          0
cpu1_L1D COHERENCE WRITE-HIT OTHER-SHARER EVENTS:          0
cpu1->cpu1_ITLB TOTAL        ACCESS:   33229076 HIT:   30957454 MISS:    2271622 MSHR_MERGE:      51068
cpu1->cpu1_ITLB LOAD         ACCESS:   33229076 HIT:   30957454 MISS:    2271622 MSHR_MERGE:      51068
cpu1->cpu1_ITLB RFO          ACCESS:          0 HIT:          0 MISS:          0 MSHR_MERGE:          0
cpu1->cpu1_ITLB PREFETCH     ACCESS:          0 HIT:          0 MISS:          0 MSHR_MERGE:          0
cpu1->cpu1_ITLB WRITE        ACCESS:          0 HIT:          0 MISS:          0 MSHR_MERGE:          0
cpu1->cpu1_ITLB TRANSLATION  ACCESS:          0 HIT:          0 MISS:          0 MSHR_MERGE:          0
cpu1->cpu1_ITLB PREFETCH REQUESTED:          0 ISSUED:          0 USEFUL:          0 USELESS:          0
cpu1->cpu1_ITLB AVERAGE MISS LATENCY: 60.56 cycles
cpu1_ITLB COHERENCE INVALIDATIONS:          0
cpu1_ITLB COHERENCE WRITE-HIT OTHER-SHARER EVENTS:          0
cpu1_DTLB COHERENCE INVALIDATIONS:          0
cpu1_DTLB COHERENCE WRITE-HIT OTHER-SHARER EVENTS:          0
cpu0->cpu0_STLB TOTAL        ACCESS:     311538 HIT:     311538 MISS:          0 MSHR_MERGE:          0
cpu0->cpu0_STLB LOAD         ACCESS:     311538 HIT:     311538 MISS:          0 MSHR_MERGE:          0
cpu0->cpu0_STLB RFO          ACCESS:          0 HIT:          0 MISS:          0 MSHR_MERGE:          0
cpu0->cpu0_STLB PREFETCH     ACCESS:          0 HIT:          0 MISS:          0 MSHR_MERGE:          0
cpu0->cpu0_STLB WRITE        ACCESS:          0 HIT:          0 MISS:          0 MSHR_MERGE:          0
cpu0->cpu0_STLB TRANSLATION  ACCESS:          0 HIT:          0 MISS:          0 MSHR_MERGE:          0
cpu0->cpu0_STLB PREFETCH REQUESTED:          0 ISSUED:          0 USEFUL:          0 USELESS:          0
cpu0->cpu0_STLB AVERAGE MISS LATENCY: - cycles
cpu0_STLB COHERENCE INVALIDATIONS:          0
cpu0_STLB COHERENCE WRITE-HIT OTHER-SHARER EVENTS:          0
cpu0->cpu0_L2C TOTAL        ACCESS:    9965157 HIT:    4833637 MISS:    5131520 MSHR_MERGE:          0
cpu0->cpu0_L2C LOAD         ACCESS:    1569891 HIT:     529375 MISS:    1040516 MSHR_MERGE:          0
cpu0->cpu0_L2C RFO          ACCESS:    4166734 HIT:      75730 MISS:    4091004 MSHR_MERGE:          0
cpu0->cpu0_L2C PREFETCH     ACCESS:          0 HIT:          0 MISS:          0 MSHR_MERGE:          0
cpu0->cpu0_L2C WRITE        ACCESS:    4228532 HIT:    4228532 MISS:          0 MSHR_MERGE:          0
cpu0->cpu0_L2C TRANSLATION  ACCESS:          0 HIT:          0 MISS:          0 MSHR_MERGE:          0
cpu0->cpu0_L2C PREFETCH REQUESTED:          0 ISSUED:          0 USEFUL:          0 USELESS:          0
cpu0->cpu0_L2C AVERAGE MISS LATENCY: 270.8 cycles
cpu0_L2C COHERENCE INVALIDATIONS:          0
cpu0_L2C COHERENCE WRITE-HIT OTHER-SHARER EVENTS:          0
cpu0->cpu0_L1I TOTAL        ACCESS:  139754835 HIT:  139447820 MISS:     307015 MSHR_MERGE:      81753
cpu0->cpu0_L1I LOAD         ACCESS:  139754835 HIT:  139447820 MISS:     307015 MSHR_MERGE:      81753
cpu0->cpu0_L1I RFO          ACCESS:          0 HIT:          0 MISS:          0 MSHR_MERGE:          0
cpu0->cpu0_L1I PREFETCH     ACCESS:          0 HIT:          0 MISS:          0 MSHR_MERGE:          0
cpu0->cpu0_L1I WRITE        ACCESS:          0 HIT:          0 MISS:          0 MSHR_MERGE:          0
cpu0->cpu0_L1I TRANSLATION  ACCESS:          0 HIT:          0 MISS:          0 MSHR_MERGE:          0
cpu0->cpu0_L1I PREFETCH REQUESTED:          0 ISSUED:          0 USEFUL:          0 USELESS:          0
cpu0->cpu0_L1I AVERAGE MISS LATENCY: 293.5 cycles
cpu0_L1I COHERENCE INVALIDATIONS:          0
cpu0_L1I COHERENCE WRITE-HIT OTHER-SHARER EVENTS:          0
cpu0->cpu0_L1D TOTAL        ACCESS:  165781082 HIT:  135425154 MISS:   30355928 MSHR_MERGE:   24841102
cpu0->cpu0_L1D LOAD         ACCESS:   16989980 HIT:   14282595 MISS:    2707385 MSHR_MERGE:    1362756
cpu0->cpu0_L1D RFO          ACCESS:          0 HIT:          0 MISS:          0 MSHR_MERGE:          0
cpu0->cpu0_L1D PREFETCH     ACCESS:          0 HIT:          0 MISS:          0 MSHR_MERGE:          0
cpu0->cpu0_L1D WRITE        ACCESS:  148791102 HIT:  121142559 MISS:   27648543 MSHR_MERGE:   23478346
cpu0->cpu0_L1D TRANSLATION  ACCESS:          0 HIT:          0 MISS:          0 MSHR_MERGE:          0
cpu0->cpu0_L1D PREFETCH REQUESTED:          0 ISSUED:          0 USEFUL:          0 USELESS:          0
cpu0->cpu0_L1D AVERAGE MISS LATENCY: 248.2 cycles
cpu0_L1D COHERENCE INVALIDATIONS:          0
cpu0_L1D COHERENCE WRITE-HIT OTHER-SHARER EVENTS:          0
cpu0->cpu0_ITLB TOTAL        ACCESS:  116349639 HIT:  116302891 MISS:      46748 MSHR_MERGE:      18362
cpu0->cpu0_ITLB LOAD         ACCESS:  116349639 HIT:  116302891 MISS:      46748 MSHR_MERGE:      18362
cpu0->cpu0_ITLB RFO          ACCESS:          0 HIT:          0 MISS:          0 MSHR_MERGE:          0
cpu0->cpu0_ITLB PREFETCH     ACCESS:          0 HIT:          0 MISS:          0 MSHR_MERGE:          0
cpu0->cpu0_ITLB WRITE        ACCESS:          0 HIT:          0 MISS:          0 MSHR_MERGE:          0
cpu0->cpu0_ITLB TRANSLATION  ACCESS:          0 HIT:          0 MISS:          0 MSHR_MERGE:          0
cpu0->cpu0_ITLB PREFETCH REQUESTED:          0 ISSUED:          0 USEFUL:          0 USELESS:          0
cpu0->cpu0_ITLB AVERAGE MISS LATENCY: 4.005 cycles
cpu0_ITLB COHERENCE INVALIDATIONS:          0
cpu0_ITLB COHERENCE WRITE-HIT OTHER-SHARER EVENTS:          0
cpu0->cpu0_DTLB TOTAL        ACCESS:  138147851 HIT:  137783895 MISS:     363956 MSHR_MERGE:      80804
cpu0->cpu0_DTLB LOAD         ACCESS:  138147851 HIT:  137783895 MISS:     363956 MSHR_MERGE:      80804
cpu0->cpu0_DTLB RFO          ACCESS:          0 HIT:          0 MISS:          0 MSHR_MERGE:          0
cpu0->cpu0_DTLB PREFETCH     ACCESS:          0 HIT:          0 MISS:          0 MSHR_MERGE:          0
cpu0->cpu0_DTLB WRITE        ACCESS:          0 HIT:          0 MISS:          0 MSHR_MERGE:          0
cpu0->cpu0_DTLB TRANSLATION  ACCESS:          0 HIT:          0 MISS:          0 MSHR_MERGE:          0
cpu0->cpu0_DTLB PREFETCH REQUESTED:          0 ISSUED:          0 USEFUL:          0 USELESS:          0
cpu0->cpu0_DTLB AVERAGE MISS LATENCY: 4 cycles
cpu0_DTLB COHERENCE INVALIDATIONS:          0
cpu0_DTLB COHERENCE WRITE-HIT OTHER-SHARER EVENTS:          0
cpu0->LLC TOTAL        ACCESS:    9265856 HIT:    4735863 MISS:    4529993 MSHR_MERGE:     460275
cpu0->LLC LOAD         ACCESS:    1040516 HIT:     121471 MISS:     919045 MSHR_MERGE:     214067
cpu0->LLC RFO          ACCESS:    4091004 HIT:     483208 MISS:    3607796 MSHR_MERGE:     246208
cpu0->LLC PREFETCH     ACCESS:          0 HIT:          0 MISS:          0 MSHR_MERGE:          0
cpu0->LLC WRITE        ACCESS:    4134336 HIT:    4131184 MISS:       3152 MSHR_MERGE:          0
cpu0->LLC TRANSLATION  ACCESS:          0 HIT:          0 MISS:          0 MSHR_MERGE:          0
cpu0->LLC PREFETCH REQUESTED:          0 ISSUED:          0 USEFUL:          0 USELESS:          0
cpu0->LLC AVERAGE MISS LATENCY: 2776 cycles
cpu1->LLC TOTAL        ACCESS:    1937311 HIT:     170771 MISS:    1766540 MSHR_MERGE:     521114
cpu1->LLC LOAD         ACCESS:    1549588 HIT:     168688 MISS:    1380900 MSHR_MERGE:     521114
cpu1->LLC RFO          ACCESS:          0 HIT:          0 MISS:          0 MSHR_MERGE:          0
cpu1->LLC PREFETCH     ACCESS:          0 HIT:          0 MISS:          0 MSHR_MERGE:          0
cpu1->LLC WRITE        ACCESS:          0 HIT:          0 MISS:          0 MSHR_MERGE:          0
cpu1->LLC TRANSLATION  ACCESS:     387723 HIT:       2083 MISS:     385640 MSHR_MERGE:          0
cpu1->LLC PREFETCH REQUESTED:          0 ISSUED:          0 USEFUL:          0 USELESS:          0
cpu1->LLC AVERAGE MISS LATENCY: 2036 cycles
cpu5->LLC TOTAL        ACCESS:    9267382 HIT:    4984112 MISS:    4283270 MSHR_MERGE:    3820917
cpu5->LLC LOAD         ACCESS:    1040514 HIT:     121738 MISS:     918776 MSHR_MERGE:     704604
cpu5->LLC RFO          ACCESS:    4091897 HIT:     729373 MISS:    3362524 MSHR_MERGE:    3116313
cpu5->LLC PREFETCH     ACCESS:          0 HIT:          0 MISS:          0 MSHR_MERGE:          0
cpu5->LLC WRITE        ACCESS:    4134971 HIT:    4133001 MISS:       1970 MSHR_MERGE:          0
cpu5->LLC TRANSLATION  ACCESS:          0 HIT:          0 MISS:          0 MSHR_MERGE:          0
cpu5->LLC PREFETCH REQUESTED:          0 ISSUED:          0 USEFUL:          0 USELESS:          0
cpu5->LLC AVERAGE MISS LATENCY: 514.9 cycles
cpu6->LLC TOTAL        ACCESS:    1939585 HIT:     179241 MISS:    1760344 MSHR_MERGE:     799542
cpu6->LLC LOAD         ACCESS:    1551335 HIT:     177385 MISS:    1373950 MSHR_MERGE:     799542
cpu6->LLC RFO          ACCESS:          0 HIT:          0 MISS:          0 MSHR_MERGE:          0
cpu6->LLC PREFETCH     ACCESS:          0 HIT:          0 MISS:          0 MSHR_MERGE:          0
cpu6->LLC WRITE        ACCESS:          0 HIT:          0 MISS:          0 MSHR_MERGE:          0
cpu6->LLC TRANSLATION  ACCESS:     388250 HIT:       1856 MISS:     386394 MSHR_MERGE:          0
cpu6->LLC PREFETCH REQUESTED:          0 ISSUED:          0 USEFUL:          0 USELESS:          0
cpu6->LLC AVERAGE MISS LATENCY: 1588 cycles
LLC COHERENCE INVALIDATIONS:    6601297
LLC COHERENCE WRITE-HIT OTHER-SHARER EVENTS:    6445484

DRAM Statistics

Channel 0 RQ ROW_BUFFER_HIT:     295416
  ROW_BUFFER_MISS:    6432950
  AVG DBUS CONGESTED CYCLE: 7.387
Channel 0 WQ ROW_BUFFER_HIT:     554508
  ROW_BUFFER_MISS:    3114658
  FULL:          0
Channel 0 REFRESHES ISSUED:      32714

VMEM ALIASED FILLS (cross-CPU shared-page hits): 303933
