[VMEM] WARNING: physical memory size is smaller than virtual memory size.

*** ChampSim Multicore Out-of-Order Simulator ***
Warmup Instructions: 50000000
Simulation Instructions: 100000000
Number of CPUs: 8
Page size: 4096

Off-chip DRAM Size: 16 GiB Channels: 1 Width: 64-bit Data Rate: 3205 MT/s
*** Reached end of trace: (4, "traces/canneal_big4.champsimtrace")
*** Reached end of trace: (3, "traces/canneal_big3.champsimtrace")
*** Reached end of trace: (2, "traces/canneal_big2.champsimtrace")
*** Reached end of trace: (7, "traces/canneal_big2.champsimtrace")
*** Reached end of trace: (0, "traces/canneal_big0.champsimtrace")
*** Reached end of trace: (5, "traces/canneal_big0.champsimtrace")
*** Reached end of trace: (4, "traces/canneal_big4.champsimtrace")
*** Reached end of trace: (3, "traces/canneal_big3.champsimtrace")
Heartbeat CPU 4 instructions: 10000001 cycles: 2503631 heartbeat IPC: 3.994 cumulative IPC: 3.994 (Simulation time: 00 hr 07 min 13 sec)
Heartbeat CPU 3 instructions: 10000001 cycles: 2503657 heartbeat IPC: 3.994 cumulative IPC: 3.994 (Simulation time: 00 hr 07 min 13 sec)
*** Reached end of trace: (2, "traces/canneal_big2.champsimtrace")
*** Reached end of trace: (7, "traces/canneal_big2.champsimtrace")
Heartbeat CPU 2 instructions: 10000001 cycles: 2503806 heartbeat IPC: 3.994 cumulative IPC: 3.994 (Simulation time: 00 hr 07 min 13 sec)
Heartbeat CPU 7 instructions: 10000001 cycles: 2503813 heartbeat IPC: 3.994 cumulative IPC: 3.994 (Simulation time: 00 hr 07 min 13 sec)
*** Reached end of trace: (4, "traces/canneal_big4.champsimtrace")
*** Reached end of trace: (3, "traces/canneal_big3.champsimtrace")
*** Reached end of trace: (2, "traces/canneal_big2.champsimtrace")
*** Reached end of trace: (7, "traces/canneal_big2.champsimtrace")
*** Reached end of trace: (0, "traces/canneal_big0.champsimtrace")
Heartbeat CPU 0 instructions: 10000003 cycles: 3987397 heartbeat IPC: 2.508 cumulative IPC: 2.508 (Simulation time: 00 hr 10 min 53 sec)
*** Reached end of trace: (5, "traces/canneal_big0.champsimtrace")
Heartbeat CPU 5 instructions: 10000003 cycles: 3993697 heartbeat IPC: 2.504 cumulative IPC: 2.504 (Simulation time: 00 hr 10 min 54 sec)
*** Reached end of trace: (1, "traces/canneal_big1.champsimtrace")
*** Reached end of trace: (6, "traces/canneal_big1.champsimtrace")
*** Reached end of trace: (4, "traces/canneal_big4.champsimtrace")
*** Reached end of trace: (3, "traces/canneal_big3.champsimtrace")
Heartbeat CPU 4 instructions: 20000001 cycles: 5003631 heartbeat IPC: 4 cumulative IPC: 3.997 (Simulation time: 00 hr 13 min 23 sec)
Heartbeat CPU 3 instructions: 20000001 cycles: 5003657 heartbeat IPC: 4 cumulative IPC: 3.997 (Simulation time: 00 hr 13 min 23 sec)
*** Reached end of trace: (2, "traces/canneal_big2.champsimtrace")
*** Reached end of trace: (7, "traces/canneal_big2.champsimtrace")
Heartbeat CPU 2 instructions: 20000001 cycles: 5003806 heartbeat IPC: 4 cumulative IPC: 3.997 (Simulation time: 00 hr 13 min 23 sec)
Heartbeat CPU 7 instructions: 20000001 cycles: 5003813 heartbeat IPC: 4 cumulative IPC: 3.997 (Simulation time: 00 hr 13 min 23 sec)
*** Reached end of trace: (0, "traces/canneal_big0.champsimtrace")
*** Reached end of trace: (5, "traces/canneal_big0.champsimtrace")
*** Reached end of trace: (4, "traces/canneal_big4.champsimtrace")
*** Reached end of trace: (3, "traces/canneal_big3.champsimtrace")
*** Reached end of trace: (2, "traces/canneal_big2.champsimtrace")
*** Reached end of trace: (7, "traces/canneal_big2.champsimtrace")
*** Reached end of trace: (1, "traces/canneal_big1.champsimtrace")
Heartbeat CPU 1 instructions: 10000002 cycles: 7297077 heartbeat IPC: 1.37 cumulative IPC: 1.37 (Simulation time: 00 hr 20 min 39 sec)
*** Reached end of trace: (6, "traces/canneal_big1.champsimtrace")
Heartbeat CPU 6 instructions: 10000002 cycles: 7308056 heartbeat IPC: 1.368 cumulative IPC: 1.368 (Simulation time: 00 hr 20 min 42 sec)
*** Reached end of trace: (4, "traces/canneal_big4.champsimtrace")
*** Reached end of trace: (3, "traces/canneal_big3.champsimtrace")
Heartbeat CPU 4 instructions: 30000001 cycles: 7503631 heartbeat IPC: 4 cumulative IPC: 3.998 (Simulation time: 00 hr 21 min 26 sec)
Heartbeat CPU 3 instructions: 30000001 cycles: 7503657 heartbeat IPC: 4 cumulative IPC: 3.998 (Simulation time: 00 hr 21 min 26 sec)
*** Reached end of trace: (2, "traces/canneal_big2.champsimtrace")
*** Reached end of trace: (7, "traces/canneal_big2.champsimtrace")
Heartbeat CPU 2 instructions: 30000001 cycles: 7503806 heartbeat IPC: 4 cumulative IPC: 3.998 (Simulation time: 00 hr 21 min 26 sec)
Heartbeat CPU 7 instructions: 30000001 cycles: 7503813 heartbeat IPC: 4 cumulative IPC: 3.998 (Simulation time: 00 hr 21 min 26 sec)
*** Reached end of trace: (0, "traces/canneal_big0.champsimtrace")
Heartbeat CPU 0 instructions: 20000006 cycles: 7833590 heartbeat IPC: 2.6 cumulative IPC: 2.553 (Simulation time: 00 hr 22 min 39 sec)
*** Reached end of trace: (5, "traces/canneal_big0.champsimtrace")
Heartbeat CPU 5 instructions: 20000006 cycles: 7848021 heartbeat IPC: 2.594 cumulative IPC: 2.548 (Simulation time: 00 hr 22 min 42 sec)
*** Reached end of trace: (4, "traces/canneal_big4.champsimtrace")
*** Reached end of trace: (3, "traces/canneal_big3.champsimtrace")
*** Reached end of trace: (2, "traces/canneal_big2.champsimtrace")
*** Reached end of trace: (7, "traces/canneal_big2.champsimtrace")
*** Reached end of trace: (0, "traces/canneal_big0.champsimtrace")
*** Reached end of trace: (5, "traces/canneal_big0.champsimtrace")
*** Reached end of trace: (4, "traces/canneal_big4.champsimtrace")
*** Reached end of trace: (3, "traces/canneal_big3.champsimtrace")
Heartbeat CPU 4 instructions: 40000001 cycles: 10003631 heartbeat IPC: 4 cumulative IPC: 3.999 (Simulation time: 00 hr 29 min 39 sec)
Heartbeat CPU 3 instructions: 40000001 cycles: 10003657 heartbeat IPC: 4 cumulative IPC: 3.999 (Simulation time: 00 hr 29 min 39 sec)
*** Reached end of trace: (2, "traces/canneal_big2.champsimtrace")
*** Reached end of trace: (7, "traces/canneal_big2.champsimtrace")
Heartbeat CPU 2 instructions: 40000001 cycles: 10003806 heartbeat IPC: 4 cumulative IPC: 3.998 (Simulation time: 00 hr 29 min 39 sec)
Heartbeat CPU 7 instructions: 40000001 cycles: 10003813 heartbeat IPC: 4 cumulative IPC: 3.998 (Simulation time: 00 hr 29 min 39 sec)
*** Reached end of trace: (1, "traces/canneal_big1.champsimtrace")
*** Reached end of trace: (6, "traces/canneal_big1.champsimtrace")
*** Reached end of trace: (4, "traces/canneal_big4.champsimtrace")
*** Reached end of trace: (3, "traces/canneal_big3.champsimtrace")
*** Reached end of trace: (2, "traces/canneal_big2.champsimtrace")
*** Reached end of trace: (7, "traces/canneal_big2.champsimtrace")
*** Reached end of trace: (0, "traces/canneal_big0.champsimtrace")
Heartbeat CPU 0 instructions: 30000009 cycles: 11679756 heartbeat IPC: 2.6 cumulative IPC: 2.569 (Simulation time: 00 hr 35 min 07 sec)
*** Reached end of trace: (5, "traces/canneal_big0.champsimtrace")
Heartbeat CPU 5 instructions: 30000009 cycles: 11702147 heartbeat IPC: 2.595 cumulative IPC: 2.564 (Simulation time: 00 hr 35 min 11 sec)
*** Reached end of trace: (4, "traces/canneal_big4.champsimtrace")
*** Reached end of trace: (3, "traces/canneal_big3.champsimtrace")
Heartbeat CPU 4 instructions: 50000001 cycles: 12503631 heartbeat IPC: 4 cumulative IPC: 3.999 (Simulation time: 00 hr 38 min 05 sec)
Warmup finished CPU 4 instructions: 50000001 cycles: 12503631 cumulative IPC: 3.999 (Simulation time: 00 hr 38 min 05 sec)
Heartbeat CPU 3 instructions: 50000001 cycles: 12503657 heartbeat IPC: 4 cumulative IPC: 3.999 (Simulation time: 00 hr 38 min 05 sec)
Warmup finished CPU 3 instructions: 50000001 cycles: 12503657 cumulative IPC: 3.999 (Simulation time: 00 hr 38 min 05 sec)
*** Reached end of trace: (2, "traces/canneal_big2.champsimtrace")
*** Reached end of trace: (7, "traces/canneal_big2.champsimtrace")
Heartbeat CPU 2 instructions: 50000001 cycles: 12503806 heartbeat IPC: 4 cumulative IPC: 3.999 (Simulation time: 00 hr 38 min 05 sec)
Warmup finished CPU 2 instructions: 50000001 cycles: 12503806 cumulative IPC: 3.999 (Simulation time: 00 hr 38 min 05 sec)
Heartbeat CPU 7 instructions: 50000001 cycles: 12503813 heartbeat IPC: 4 cumulative IPC: 3.999 (Simulation time: 00 hr 38 min 05 sec)
Warmup finished CPU 7 instructions: 50000001 cycles: 12503813 cumulative IPC: 3.999 (Simulation time: 00 hr 38 min 05 sec)
*** Reached end of trace: (1, "traces/canneal_big1.champsimtrace")
Heartbeat CPU 1 instructions: 20000004 cycles: 12979031 heartbeat IPC: 1.76 cumulative IPC: 1.541 (Simulation time: 00 hr 39 min 35 sec)
*** Reached end of trace: (6, "traces/canneal_big1.champsimtrace")
Heartbeat CPU 6 instructions: 20000004 cycles: 13022312 heartbeat IPC: 1.75 cumulative IPC: 1.536 (Simulation time: 00 hr 39 min 41 sec)
*** Reached end of trace: (0, "traces/canneal_big0.champsimtrace")
*** Reached end of trace: (5, "traces/canneal_big0.champsimtrace")
*** Reached end of trace: (4, "traces/canneal_big4.champsimtrace")
*** Reached end of trace: (3, "traces/canneal_big3.champsimtrace")
*** Reached end of trace: (2, "traces/canneal_big2.champsimtrace")
*** Reached end of trace: (7, "traces/canneal_big2.champsimtrace")
*** Reached end of trace: (4, "traces/canneal_big4.champsimtrace")
*** Reached end of trace: (3, "traces/canneal_big3.champsimtrace")
Heartbeat CPU 4 instructions: 60000001 cycles: 15003631 heartbeat IPC: 4 cumulative IPC: 3.999 (Simulation time: 00 hr 45 min 22 sec)
Heartbeat CPU 3 instructions: 60000001 cycles: 15003657 heartbeat IPC: 4 cumulative IPC: 3.999 (Simulation time: 00 hr 45 min 22 sec)
*** Reached end of trace: (2, "traces/canneal_big2.champsimtrace")
*** Reached end of trace: (7, "traces/canneal_big2.champsimtrace")
Heartbeat CPU 2 instructions: 60000001 cycles: 15003806 heartbeat IPC: 4 cumulative IPC: 3.999 (Simulation time: 00 hr 45 min 22 sec)
Heartbeat CPU 7 instructions: 60000001 cycles: 15003813 heartbeat IPC: 4 cumulative IPC: 3.999 (Simulation time: 00 hr 45 min 22 sec)
*** Reached end of trace: (0, "traces/canneal_big0.champsimtrace")
Heartbeat CPU 0 instructions: 40000012 cycles: 15525492 heartbeat IPC: 2.6 cumulative IPC: 2.576 (Simulation time: 00 hr 46 min 53 sec)
*** Reached end of trace: (5, "traces/canneal_big0.champsimtrace")
Heartbeat CPU 5 instructions: 40000012 cycles: 15555923 heartbeat IPC: 2.595 cumulative IPC: 2.571 (Simulation time: 00 hr 46 min 59 sec)
*** Reached end of trace: (1, "traces/canneal_big1.champsimtrace")
*** Reached end of trace: (6, "traces/canneal_big1.champsimtrace")
*** Reached end of trace: (4, "traces/canneal_big4.champsimtrace")
*** Reached end of trace: (3, "traces/canneal_big3.champsimtrace")
*** Reached end of trace: (2, "traces/canneal_big2.champsimtrace")
*** Reached end of trace: (7, "traces/canneal_big2.champsimtrace")
*** Reached end of trace: (0, "traces/canneal_big0.champsimtrace")
*** Reached end of trace: (5, "traces/canneal_big0.champsimtrace")
*** Reached end of trace: (4, "traces/canneal_big4.champsimtrace")
*** Reached end of trace: (3, "traces/canneal_big3.champsimtrace")
Heartbeat CPU 4 instructions: 70000001 cycles: 17503631 heartbeat IPC: 4 cumulative IPC: 3.999 (Simulation time: 00 hr 54 min 04 sec)
Heartbeat CPU 3 instructions: 70000001 cycles: 17503657 heartbeat IPC: 4 cumulative IPC: 3.999 (Simulation time: 00 hr 54 min 04 sec)
*** Reached end of trace: (2, "traces/canneal_big2.champsimtrace")
*** Reached end of trace: (7, "traces/canneal_big2.champsimtrace")
Heartbeat CPU 2 instructions: 70000001 cycles: 17503806 heartbeat IPC: 4 cumulative IPC: 3.999 (Simulation time: 00 hr 54 min 04 sec)
Heartbeat CPU 7 instructions: 70000001 cycles: 17503813 heartbeat IPC: 4 cumulative IPC: 3.999 (Simulation time: 00 hr 54 min 04 sec)
*** Reached end of trace: (1, "traces/canneal_big1.champsimtrace")
Heartbeat CPU 1 instructions: 30000004 cycles: 18660713 heartbeat IPC: 1.76 cumulative IPC: 1.608 (Simulation time: 00 hr 58 min 22 sec)
*** Reached end of trace: (6, "traces/canneal_big1.champsimtrace")
Heartbeat CPU 6 instructions: 30000004 cycles: 18741056 heartbeat IPC: 1.749 cumulative IPC: 1.601 (Simulation time: 00 hr 58 min 38 sec)
*** Reached end of trace: (4, "traces/canneal_big4.champsimtrace")
*** Reached end of trace: (3, "traces/canneal_big3.champsimtrace")
*** Reached end of trace: (2, "traces/canneal_big2.champsimtrace")
*** Reached end of trace: (7, "traces/canneal_big2.champsimtrace")
*** Reached end of trace: (0, "traces/canneal_big0.champsimtrace")
Warmup finished CPU 0 instructions: 50000000 cycles: 19371025 cumulative IPC: 2.581 (Simulation time: 01 hr 00 min 22 sec)
Heartbeat CPU 0 instructions: 50000015 cycles: 19371028 heartbeat IPC: 2.6 cumulative IPC: 2.581 (Simulation time: 01 hr 00 min 22 sec)
*** Reached end of trace: (5, "traces/canneal_big0.champsimtrace")
Warmup finished CPU 5 instructions: 50000000 cycles: 19409706 cumulative IPC: 2.576 (Simulation time: 01 hr 00 min 28 sec)
Heartbeat CPU 5 instructions: 50000015 cycles: 19409709 heartbeat IPC: 2.595 cumulative IPC: 2.576 (Simulation time: 01 hr 00 min 28 sec)
*** Reached end of trace: (4, "traces/canneal_big4.champsimtrace")
*** Reached end of trace: (3, "traces/canneal_big3.champsimtrace")
Heartbeat CPU 4 instructions: 80000001 cycles: 20003631 heartbeat IPC: 4 cumulative IPC: 3.999 (Simulation time: 01 hr 01 min 59 sec)
Heartbeat CPU 3 instructions: 80000001 cycles: 20003657 heartbeat IPC: 4 cumulative IPC: 3.999 (Simulation time: 01 hr 01 min 59 sec)
*** Reached end of trace: (2, "traces/canneal_big2.champsimtrace")
*** Reached end of trace: (7, "traces/canneal_big2.champsimtrace")
Heartbeat CPU 2 instructions: 80000001 cycles: 20003806 heartbeat IPC: 4 cumulative IPC: 3.999 (Simulation time: 01 hr 01 min 59 sec)
Heartbeat CPU 7 instructions: 80000001 cycles: 20003813 heartbeat IPC: 4 cumulative IPC: 3.999 (Simulation time: 01 hr 01 min 59 sec)
*** Reached end of trace: (4, "traces/canneal_big4.champsimtrace")
*** Reached end of trace: (3, "traces/canneal_big3.champsimtrace")
*** Reached end of trace: (2, "traces/canneal_big2.champsimtrace")
*** Reached end of trace: (7, "traces/canneal_big2.champsimtrace")
*** Reached end of trace: (0, "traces/canneal_big0.champsimtrace")
*** Reached end of trace: (5, "traces/canneal_big0.champsimtrace")
*** Reached end of trace: (1, "traces/canneal_big1.champsimtrace")
*** Reached end of trace: (6, "traces/canneal_big1.champsimtrace")
*** Reached end of trace: (4, "traces/canneal_big4.champsimtrace")
*** Reached end of trace: (3, "traces/canneal_big3.champsimtrace")
Heartbeat CPU 4 instructions: 90000001 cycles: 22503631 heartbeat IPC: 4 cumulative IPC: 3.999 (Simulation time: 01 hr 08 min 27 sec)
Heartbeat CPU 3 instructions: 90000001 cycles: 22503657 heartbeat IPC: 4 cumulative IPC: 3.999 (Simulation time: 01 hr 08 min 27 sec)
*** Reached end of trace: (2, "traces/canneal_big2.champsimtrace")
*** Reached end of trace: (7, "traces/canneal_big2.champsimtrace")
Heartbeat CPU 2 instructions: 90000001 cycles: 22503806 heartbeat IPC: 4 cumulative IPC: 3.999 (Simulation time: 01 hr 08 min 27 sec)
Heartbeat CPU 7 instructions: 90000001 cycles: 22503813 heartbeat IPC: 4 cumulative IPC: 3.999 (Simulation time: 01 hr 08 min 27 sec)
*** Reached end of trace: (0, "traces/canneal_big0.champsimtrace")
Heartbeat CPU 0 instructions: 60000018 cycles: 23216313 heartbeat IPC: 2.601 cumulative IPC: 2.584 (Simulation time: 01 hr 10 min 15 sec)
*** Reached end of trace: (5, "traces/canneal_big0.champsimtrace")
Heartbeat CPU 5 instructions: 60000018 cycles: 23263370 heartbeat IPC: 2.595 cumulative IPC: 2.579 (Simulation time: 01 hr 10 min 22 sec)
*** Reached end of trace: (4, "traces/canneal_big4.champsimtrace")
*** Reached end of trace: (3, "traces/canneal_big3.champsimtrace")
*** Reached end of trace: (2, "traces/canneal_big2.champsimtrace")
*** Reached end of trace: (7, "traces/canneal_big2.champsimtrace")
*** Reached end of trace: (1, "traces/canneal_big1.champsimtrace")
Heartbeat CPU 1 instructions: 40000006 cycles: 24342574 heartbeat IPC: 1.76 cumulative IPC: 1.643 (Simulation time: 01 hr 13 min 04 sec)
*** Reached end of trace: (6, "traces/canneal_big1.champsimtrace")
Heartbeat CPU 6 instructions: 40000006 cycles: 24460765 heartbeat IPC: 1.748 cumulative IPC: 1.635 (Simulation time: 01 hr 13 min 21 sec)
*** Reached end of trace: (4, "traces/canneal_big4.champsimtrace")
*** Reached end of trace: (3, "traces/canneal_big3.champsimtrace")
Heartbeat CPU 4 instructions: 100000001 cycles: 25003631 heartbeat IPC: 4 cumulative IPC: 3.999 (Simulation time: 01 hr 15 min 08 sec)
Heartbeat CPU 3 instructions: 100000001 cycles: 25003657 heartbeat IPC: 4 cumulative IPC: 3.999 (Simulation time: 01 hr 15 min 08 sec)
*** Reached end of trace: (2, "traces/canneal_big2.champsimtrace")
*** Reached end of trace: (7, "traces/canneal_big2.champsimtrace")
Heartbeat CPU 2 instructions: 100000001 cycles: 25003806 heartbeat IPC: 4 cumulative IPC: 3.999 (Simulation time: 01 hr 15 min 08 sec)
Heartbeat CPU 7 instructions: 100000001 cycles: 25003813 heartbeat IPC: 4 cumulative IPC: 3.999 (Simulation time: 01 hr 15 min 08 sec)
*** Reached end of trace: (0, "traces/canneal_big0.champsimtrace")
*** Reached end of trace: (5, "traces/canneal_big0.champsimtrace")
*** Reached end of trace: (4, "traces/canneal_big4.champsimtrace")
*** Reached end of trace: (3, "traces/canneal_big3.champsimtrace")
*** Reached end of trace: (2, "traces/canneal_big2.champsimtrace")
*** Reached end of trace: (7, "traces/canneal_big2.champsimtrace")
*** Reached end of trace: (0, "traces/canneal_big0.champsimtrace")
Heartbeat CPU 0 instructions: 70000021 cycles: 27061775 heartbeat IPC: 2.6 cumulative IPC: 2.587 (Simulation time: 01 hr 22 min 41 sec)
*** Reached end of trace: (5, "traces/canneal_big0.champsimtrace")
Heartbeat CPU 5 instructions: 70000021 cycles: 27116774 heartbeat IPC: 2.595 cumulative IPC: 2.581 (Simulation time: 01 hr 22 min 52 sec)
*** Reached end of trace: (1, "traces/canneal_big1.champsimtrace")
*** Reached end of trace: (6, "traces/canneal_big1.champsimtrace")
*** Reached end of trace: (4, "traces/canneal_big4.champsimtrace")
*** Reached end of trace: (3, "traces/canneal_big3.champsimtrace")
Heartbeat CPU 4 instructions: 110000001 cycles: 27503631 heartbeat IPC: 4 cumulative IPC: 3.999 (Simulation time: 01 hr 24 min 23 sec)
Heartbeat CPU 3 instructions: 110000001 cycles: 27503657 heartbeat IPC: 4 cumulative IPC: 3.999 (Simulation time: 01 hr 24 min 23 sec)
*** Reached end of trace: (2, "traces/canneal_big2.champsimtrace")
*** Reached end of trace: (7, "traces/canneal_big2.champsimtrace")
Heartbeat CPU 2 instructions: 110000001 cycles: 27503806 heartbeat IPC: 4 cumulative IPC: 3.999 (Simulation time: 01 hr 24 min 23 sec)
Heartbeat CPU 7 instructions: 110000001 cycles: 27503813 heartbeat IPC: 4 cumulative IPC: 3.999 (Simulation time: 01 hr 24 min 23 sec)
*** Reached end of trace: (4, "traces/canneal_big4.champsimtrace")
*** Reached end of trace: (3, "traces/canneal_big3.champsimtrace")
*** Reached end of trace: (2, "traces/canneal_big2.champsimtrace")
*** Reached end of trace: (7, "traces/canneal_big2.champsimtrace")
*** Reached end of trace: (0, "traces/canneal_big0.champsimtrace")
*** Reached end of trace: (5, "traces/canneal_big0.champsimtrace")
*** Reached end of trace: (4, "traces/canneal_big4.champsimtrace")
*** Reached end of trace: (3, "traces/canneal_big3.champsimtrace")
Heartbeat CPU 4 instructions: 120000001 cycles: 30003631 heartbeat IPC: 4 cumulative IPC: 4 (Simulation time: 01 hr 32 min 25 sec)
Heartbeat CPU 3 instructions: 120000001 cycles: 30003657 heartbeat IPC: 4 cumulative IPC: 4 (Simulation time: 01 hr 32 min 25 sec)
*** Reached end of trace: (2, "traces/canneal_big2.champsimtrace")
*** Reached end of trace: (7, "traces/canneal_big2.champsimtrace")
Heartbeat CPU 2 instructions: 120000001 cycles: 30003806 heartbeat IPC: 4 cumulative IPC: 3.999 (Simulation time: 01 hr 32 min 25 sec)
Heartbeat CPU 7 instructions: 120000001 cycles: 30003813 heartbeat IPC: 4 cumulative IPC: 3.999 (Simulation time: 01 hr 32 min 25 sec)
*** Reached end of trace: (1, "traces/canneal_big1.champsimtrace")
Warmup finished CPU 1 instructions: 50000000 cycles: 30024239 cumulative IPC: 1.665 (Simulation time: 01 hr 32 min 28 sec)
Heartbeat CPU 1 instructions: 50000008 cycles: 30024258 heartbeat IPC: 1.76 cumulative IPC: 1.665 (Simulation time: 01 hr 32 min 28 sec)
*** Reached end of trace: (6, "traces/canneal_big1.champsimtrace")
Warmup finished CPU 6 instructions: 50000000 cycles: 30180695 cumulative IPC: 1.657 (Simulation time: 01 hr 32 min 51 sec)
Warmup complete CPU 7 instructions: 120707529 cycles: 30180695 cumulative IPC: 3.999 (Simulation time: 01 hr 32 min 51 sec)
Warmup complete CPU 6 instructions: 50000000 cycles: 30180695 cumulative IPC: 1.657 (Simulation time: 01 hr 32 min 51 sec)
Warmup complete CPU 5 instructions: 78094029 cycles: 30180695 cumulative IPC: 2.588 (Simulation time: 01 hr 32 min 51 sec)
Warmup complete CPU 4 instructions: 120708257 cycles: 30180695 cumulative IPC: 4 (Simulation time: 01 hr 32 min 51 sec)
Warmup complete CPU 3 instructions: 120708153 cycles: 30180695 cumulative IPC: 4 (Simulation time: 01 hr 32 min 51 sec)
Warmup complete CPU 2 instructions: 120707557 cycles: 30180695 cumulative IPC: 3.999 (Simulation time: 01 hr 32 min 51 sec)
Warmup complete CPU 1 instructions: 50238709 cycles: 30180695 cumulative IPC: 1.665 (Simulation time: 01 hr 32 min 51 sec)
Warmup complete CPU 0 instructions: 78244809 cycles: 30180695 cumulative IPC: 2.593 (Simulation time: 01 hr 32 min 51 sec)
Heartbeat CPU 6 instructions: 50000008 cycles: 30180893 heartbeat IPC: 1.748 cumulative IPC: 0.0404 (Simulation time: 01 hr 32 min 51 sec)
*** Reached end of trace: (0, "traces/canneal_big0.champsimtrace")
Heartbeat CPU 0 instructions: 80000024 cycles: 30981788 heartbeat IPC: 2.551 cumulative IPC: 2.191 (Simulation time: 01 hr 34 min 54 sec)
*** Reached end of trace: (5, "traces/canneal_big0.champsimtrace")
Heartbeat CPU 5 instructions: 80000021 cycles: 31064232 heartbeat IPC: 2.533 cumulative IPC: 2.157 (Simulation time: 01 hr 35 min 06 sec)
*** Reached end of trace: (4, "traces/canneal_big4.champsimtrace")
*** Reached end of trace: (3, "traces/canneal_big3.champsimtrace")
*** Reached end of trace: (2, "traces/canneal_big2.champsimtrace")
*** Reached end of trace: (7, "traces/canneal_big2.champsimtrace")
*** Reached end of trace: (4, "traces/canneal_big4.champsimtrace")
*** Reached end of trace: (3, "traces/canneal_big3.champsimtrace")
Heartbeat CPU 4 instructions: 130000001 cycles: 32503631 heartbeat IPC: 4 cumulative IPC: 4 (Simulation time: 01 hr 38 min 52 sec)
Heartbeat CPU 3 instructions: 130000001 cycles: 32503657 heartbeat IPC: 4 cumulative IPC: 4 (Simulation time: 01 hr 38 min 52 sec)
*** Reached end of trace: (2, "traces/canneal_big2.champsimtrace")
*** Reached end of trace: (7, "traces/canneal_big2.champsimtrace")
Heartbeat CPU 2 instructions: 130000001 cycles: 32503806 heartbeat IPC: 4 cumulative IPC: 4 (Simulation time: 01 hr 38 min 52 sec)
Heartbeat CPU 7 instructions: 130000001 cycles: 32503813 heartbeat IPC: 4 cumulative IPC: 4 (Simulation time: 01 hr 38 min 52 sec)
*** Reached end of trace: (0, "traces/canneal_big0.champsimtrace")
*** Reached end of trace: (5, "traces/canneal_big0.champsimtrace")
*** Reached end of trace: (4, "traces/canneal_big4.champsimtrace")
*** Reached end of trace: (3, "traces/canneal_big3.champsimtrace")
*** Reached end of trace: (2, "traces/canneal_big2.champsimtrace")
*** Reached end of trace: (7, "traces/canneal_big2.champsimtrace")
*** Reached end of trace: (4, "traces/canneal_big4.champsimtrace")
*** Reached end of trace: (3, "traces/canneal_big3.champsimtrace")
Heartbeat CPU 4 instructions: 140000001 cycles: 35003631 heartbeat IPC: 4 cumulative IPC: 4 (Simulation time: 01 hr 47 min 20 sec)
Heartbeat CPU 3 instructions: 140000001 cycles: 35003657 heartbeat IPC: 4 cumulative IPC: 4 (Simulation time: 01 hr 47 min 20 sec)
*** Reached end of trace: (2, "traces/canneal_big2.champsimtrace")
*** Reached end of trace: (7, "traces/canneal_big2.champsimtrace")
Heartbeat CPU 2 instructions: 140000001 cycles: 35003806 heartbeat IPC: 4 cumulative IPC: 4 (Simulation time: 01 hr 47 min 20 sec)
Heartbeat CPU 7 instructions: 140000001 cycles: 35003813 heartbeat IPC: 4 cumulative IPC: 4 (Simulation time: 01 hr 47 min 20 sec)
*** Reached end of trace: (0, "traces/canneal_big0.champsimtrace")
Heartbeat CPU 0 instructions: 90000027 cycles: 35691426 heartbeat IPC: 2.123 cumulative IPC: 2.133 (Simulation time: 01 hr 49 min 54 sec)
*** Reached end of trace: (5, "traces/canneal_big0.champsimtrace")
Heartbeat CPU 5 instructions: 90000022 cycles: 35693571 heartbeat IPC: 2.16 cumulative IPC: 2.16 (Simulation time: 01 hr 49 min 55 sec)
*** Reached end of trace: (4, "traces/canneal_big4.champsimtrace")
*** Reached end of trace: (3, "traces/canneal_big3.champsimtrace")
*** Reached end of trace: (2, "traces/canneal_big2.champsimtrace")
*** Reached end of trace: (7, "traces/canneal_big2.champsimtrace")
*** Reached end of trace: (4, "traces/canneal_big4.champsimtrace")
*** Reached end of trace: (3, "traces/canneal_big3.champsimtrace")
Heartbeat CPU 4 instructions: 150000001 cycles: 37503631 heartbeat IPC: 4 cumulative IPC: 4 (Simulation time: 01 hr 56 min 33 sec)
Heartbeat CPU 3 instructions: 150000001 cycles: 37503657 heartbeat IPC: 4 cumulative IPC: 4 (Simulation time: 01 hr 56 min 33 sec)
*** Reached end of trace: (2, "traces/canneal_big2.champsimtrace")
*** Reached end of trace: (7, "traces/canneal_big2.champsimtrace")
Heartbeat CPU 2 instructions: 150000001 cycles: 37503806 heartbeat IPC: 4 cumulative IPC: 4 (Simulation time: 01 hr 56 min 33 sec)
Heartbeat CPU 7 instructions: 150000001 cycles: 37503813 heartbeat IPC: 4 cumulative IPC: 4 (Simulation time: 01 hr 56 min 33 sec)
*** Reached end of trace: (0, "traces/canneal_big0.champsimtrace")
*** Reached end of trace: (5, "traces/canneal_big0.champsimtrace")
*** Reached end of trace: (4, "traces/canneal_big4.champsimtrace")
*** Reached end of trace: (3, "traces/canneal_big3.champsimtrace")
*** Reached end of trace: (2, "traces/canneal_big2.champsimtrace")
*** Reached end of trace: (7, "traces/canneal_big2.champsimtrace")
*** Reached end of trace: (4, "traces/canneal_big4.champsimtrace")
*** Reached end of trace: (3, "traces/canneal_big3.champsimtrace")
Heartbeat CPU 4 instructions: 160000001 cycles: 40003631 heartbeat IPC: 4 cumulative IPC: 4 (Simulation time: 02 hr 04 min 20 sec)
Heartbeat CPU 3 instructions: 160000001 cycles: 40003657 heartbeat IPC: 4 cumulative IPC: 4 (Simulation time: 02 hr 04 min 20 sec)
*** Reached end of trace: (2, "traces/canneal_big2.champsimtrace")
*** Reached end of trace: (7, "traces/canneal_big2.champsimtrace")
Heartbeat CPU 2 instructions: 160000001 cycles: 40003806 heartbeat IPC: 4 cumulative IPC: 4 (Simulation time: 02 hr 04 min 20 sec)
Heartbeat CPU 7 instructions: 160000001 cycles: 40003813 heartbeat IPC: 4 cumulative IPC: 4 (Simulation time: 02 hr 04 min 20 sec)
*** Reached end of trace: (0, "traces/canneal_big0.champsimtrace")
Heartbeat CPU 0 instructions: 100000030 cycles: 40412944 heartbeat IPC: 2.118 cumulative IPC: 2.126 (Simulation time: 02 hr 05 min 20 sec)
*** Reached end of trace: (5, "traces/canneal_big0.champsimtrace")
Heartbeat CPU 5 instructions: 100000025 cycles: 40417157 heartbeat IPC: 2.117 cumulative IPC: 2.14 (Simulation time: 02 hr 05 min 20 sec)
*** Reached end of trace: (4, "traces/canneal_big4.champsimtrace")
*** Reached end of trace: (3, "traces/canneal_big3.champsimtrace")
*** Reached end of trace: (2, "traces/canneal_big2.champsimtrace")
*** Reached end of trace: (7, "traces/canneal_big2.champsimtrace")
*** Reached end of trace: (4, "traces/canneal_big4.champsimtrace")
*** Reached end of trace: (3, "traces/canneal_big3.champsimtrace")
Heartbeat CPU 4 instructions: 170000001 cycles: 42503631 heartbeat IPC: 4 cumulative IPC: 4 (Simulation time: 02 hr 10 min 19 sec)
Heartbeat CPU 3 instructions: 170000001 cycles: 42503657 heartbeat IPC: 4 cumulative IPC: 4 (Simulation time: 02 hr 10 min 19 sec)
*** Reached end of trace: (2, "traces/canneal_big2.champsimtrace")
*** Reached end of trace: (7, "traces/canneal_big2.champsimtrace")
Heartbeat CPU 2 instructions: 170000001 cycles: 42503806 heartbeat IPC: 4 cumulative IPC: 4 (Simulation time: 02 hr 10 min 19 sec)
Heartbeat CPU 7 instructions: 170000001 cycles: 42503813 heartbeat IPC: 4 cumulative IPC: 4 (Simulation time: 02 hr 10 min 19 sec)
*** Reached end of trace: (0, "traces/canneal_big0.champsimtrace")
*** Reached end of trace: (5, "traces/canneal_big0.champsimtrace")
*** Reached end of trace: (4, "traces/canneal_big4.champsimtrace")
*** Reached end of trace: (3, "traces/canneal_big3.champsimtrace")
*** Reached end of trace: (2, "traces/canneal_big2.champsimtrace")
*** Reached end of trace: (7, "traces/canneal_big2.champsimtrace")
*** Reached end of trace: (4, "traces/canneal_big4.champsimtrace")
*** Reached end of trace: (3, "traces/canneal_big3.champsimtrace")
Heartbeat CPU 4 instructions: 180000001 cycles: 45003631 heartbeat IPC: 4 cumulative IPC: 4 (Simulation time: 02 hr 16 min 57 sec)
Heartbeat CPU 3 instructions: 180000001 cycles: 45003657 heartbeat IPC: 4 cumulative IPC: 4 (Simulation time: 02 hr 16 min 57 sec)
*** Reached end of trace: (2, "traces/canneal_big2.champsimtrace")
*** Reached end of trace: (7, "traces/canneal_big2.champsimtrace")
Heartbeat CPU 2 instructions: 180000001 cycles: 45003806 heartbeat IPC: 4 cumulative IPC: 4 (Simulation time: 02 hr 16 min 57 sec)
Heartbeat CPU 7 instructions: 180000001 cycles: 45003813 heartbeat IPC: 4 cumulative IPC: 4 (Simulation time: 02 hr 16 min 57 sec)
*** Reached end of trace: (0, "traces/canneal_big0.champsimtrace")
Heartbeat CPU 0 instructions: 110000033 cycles: 45097671 heartbeat IPC: 2.135 cumulative IPC: 2.129 (Simulation time: 02 hr 17 min 20 sec)
*** Reached end of trace: (5, "traces/canneal_big0.champsimtrace")
Heartbeat CPU 5 instructions: 110000028 cycles: 45100203 heartbeat IPC: 2.135 cumulative IPC: 2.139 (Simulation time: 02 hr 17 min 20 sec)
*** Reached end of trace: (4, "traces/canneal_big4.champsimtrace")
*** Reached end of trace: (3, "traces/canneal_big3.champsimtrace")
*** Reached end of trace: (2, "traces/canneal_big2.champsimtrace")
*** Reached end of trace: (7, "traces/canneal_big2.champsimtrace")
*** Reached end of trace: (0, "traces/canneal_big0.champsimtrace")
*** Reached end of trace: (5, "traces/canneal_big0.champsimtrace")
*** Reached end of trace: (4, "traces/canneal_big4.champsimtrace")
*** Reached end of trace: (3, "traces/canneal_big3.champsimtrace")
Heartbeat CPU 4 instructions: 190000001 cycles: 47503631 heartbeat IPC: 4 cumulative IPC: 4 (Simulation time: 02 hr 26 min 07 sec)
Heartbeat CPU 3 instructions: 190000001 cycles: 47503657 heartbeat IPC: 4 cumulative IPC: 4 (Simulation time: 02 hr 26 min 07 sec)
*** Reached end of trace: (2, "traces/canneal_big2.champsimtrace")
*** Reached end of trace: (7, "traces/canneal_big2.champsimtrace")
Heartbeat CPU 2 instructions: 190000001 cycles: 47503806 heartbeat IPC: 4 cumulative IPC: 4 (Simulation time: 02 hr 26 min 07 sec)
Heartbeat CPU 7 instructions: 190000001 cycles: 47503813 heartbeat IPC: 4 cumulative IPC: 4 (Simulation time: 02 hr 26 min 07 sec)
*** Reached end of trace: (1, "traces/canneal_big1.champsimtrace")
*** Reached end of trace: (4, "traces/canneal_big4.champsimtrace")
*** Reached end of trace: (3, "traces/canneal_big3.champsimtrace")
*** Reached end of trace: (2, "traces/canneal_big2.champsimtrace")
*** Reached end of trace: (7, "traces/canneal_big2.champsimtrace")
*** Reached end of trace: (6, "traces/canneal_big1.champsimtrace")
*** Reached end of trace: (0, "traces/canneal_big0.champsimtrace")
Heartbeat CPU 0 instructions: 120000036 cycles: 49774512 heartbeat IPC: 2.138 cumulative IPC: 2.131 (Simulation time: 02 hr 33 min 33 sec)
*** Reached end of trace: (5, "traces/canneal_big0.champsimtrace")
Heartbeat CPU 5 instructions: 120000031 cycles: 49777714 heartbeat IPC: 2.138 cumulative IPC: 2.138 (Simulation time: 02 hr 33 min 33 sec)
*** Reached end of trace: (4, "traces/canneal_big4.champsimtrace")
*** Reached end of trace: (3, "traces/canneal_big3.champsimtrace")
Heartbeat CPU 4 instructions: 200000001 cycles: 50003631 heartbeat IPC: 4 cumulative IPC: 4 (Simulation time: 02 hr 34 min 09 sec)
Heartbeat CPU 3 instructions: 200000001 cycles: 50003657 heartbeat IPC: 4 cumulative IPC: 4 (Simulation time: 02 hr 34 min 09 sec)
*** Reached end of trace: (2, "traces/canneal_big2.champsimtrace")
*** Reached end of trace: (7, "traces/canneal_big2.champsimtrace")
Heartbeat CPU 2 instructions: 200000001 cycles: 50003806 heartbeat IPC: 4 cumulative IPC: 4 (Simulation time: 02 hr 34 min 09 sec)
Heartbeat CPU 7 instructions: 200000001 cycles: 50003813 heartbeat IPC: 4 cumulative IPC: 4 (Simulation time: 02 hr 34 min 09 sec)
*** Reached end of trace: (4, "traces/canneal_big4.champsimtrace")
*** Reached end of trace: (3, "traces/canneal_big3.champsimtrace")
*** Reached end of trace: (2, "traces/canneal_big2.champsimtrace")
*** Reached end of trace: (7, "traces/canneal_big2.champsimtrace")
*** Reached end of trace: (0, "traces/canneal_big0.champsimtrace")
*** Reached end of trace: (5, "traces/canneal_big0.champsimtrace")
*** Reached end of trace: (4, "traces/canneal_big4.champsimtrace")
*** Reached end of trace: (3, "traces/canneal_big3.champsimtrace")
Heartbeat CPU 4 instructions: 210000001 cycles: 52503631 heartbeat IPC: 4 cumulative IPC: 4 (Simulation time: 02 hr 40 min 40 sec)
Heartbeat CPU 3 instructions: 210000001 cycles: 52503657 heartbeat IPC: 4 cumulative IPC: 4 (Simulation time: 02 hr 40 min 40 sec)
*** Reached end of trace: (2, "traces/canneal_big2.champsimtrace")
*** Reached end of trace: (7, "traces/canneal_big2.champsimtrace")
Heartbeat CPU 2 instructions: 210000001 cycles: 52503806 heartbeat IPC: 4 cumulative IPC: 4 (Simulation time: 02 hr 40 min 40 sec)
Heartbeat CPU 7 instructions: 210000001 cycles: 52503813 heartbeat IPC: 4 cumulative IPC: 4 (Simulation time: 02 hr 40 min 40 sec)
*** Reached end of trace: (4, "traces/canneal_big4.champsimtrace")
*** Reached end of trace: (3, "traces/canneal_big3.champsimtrace")
*** Reached end of trace: (2, "traces/canneal_big2.champsimtrace")
*** Reached end of trace: (7, "traces/canneal_big2.champsimtrace")
*** Reached end of trace: (0, "traces/canneal_big0.champsimtrace")
Heartbeat CPU 0 instructions: 130000039 cycles: 54500385 heartbeat IPC: 2.116 cumulative IPC: 2.128 (Simulation time: 02 hr 46 min 24 sec)
*** Reached end of trace: (5, "traces/canneal_big0.champsimtrace")
Heartbeat CPU 5 instructions: 130000034 cycles: 54503068 heartbeat IPC: 2.116 cumulative IPC: 2.134 (Simulation time: 02 hr 46 min 25 sec)
*** Reached end of trace: (4, "traces/canneal_big4.champsimtrace")
*** Reached end of trace: (3, "traces/canneal_big3.champsimtrace")
Heartbeat CPU 4 instructions: 220000001 cycles: 55003631 heartbeat IPC: 4 cumulative IPC: 4 (Simulation time: 02 hr 48 min 10 sec)
Heartbeat CPU 3 instructions: 220000001 cycles: 55003657 heartbeat IPC: 4 cumulative IPC: 4 (Simulation time: 02 hr 48 min 10 sec)
*** Reached end of trace: (2, "traces/canneal_big2.champsimtrace")
*** Reached end of trace: (7, "traces/canneal_big2.champsimtrace")
Heartbeat CPU 2 instructions: 220000001 cycles: 55003806 heartbeat IPC: 4 cumulative IPC: 4 (Simulation time: 02 hr 48 min 10 sec)
Heartbeat CPU 7 instructions: 220000001 cycles: 55003813 heartbeat IPC: 4 cumulative IPC: 4 (Simulation time: 02 hr 48 min 10 sec)
Simulation finished CPU 7 instructions: 100000000 cycles: 25000000 cumulative IPC: 4 (Simulation time: 02 hr 48 min 49 sec)
Simulation finished CPU 4 instructions: 100000000 cycles: 25000000 cumulative IPC: 4 (Simulation time: 02 hr 48 min 49 sec)
Simulation finished CPU 3 instructions: 100000000 cycles: 25000000 cumulative IPC: 4 (Simulation time: 02 hr 48 min 49 sec)
Simulation finished CPU 2 instructions: 100000000 cycles: 25000000 cumulative IPC: 4 (Simulation time: 02 hr 48 min 49 sec)
*** Reached end of trace: (4, "traces/canneal_big4.champsimtrace")
*** Reached end of trace: (3, "traces/canneal_big3.champsimtrace")
*** Reached end of trace: (2, "traces/canneal_big2.champsimtrace")
*** Reached end of trace: (7, "traces/canneal_big2.champsimtrace")
*** Reached end of trace: (0, "traces/canneal_big0.champsimtrace")
*** Reached end of trace: (5, "traces/canneal_big0.champsimtrace")
*** Reached end of trace: (4, "traces/canneal_big4.champsimtrace")
*** Reached end of trace: (3, "traces/canneal_big3.champsimtrace")
Heartbeat CPU 4 instructions: 230000001 cycles: 57503631 heartbeat IPC: 4 cumulative IPC: 4 (Simulation time: 02 hr 57 min 33 sec)
Heartbeat CPU 3 instructions: 230000001 cycles: 57503657 heartbeat IPC: 4 cumulative IPC: 4 (Simulation time: 02 hr 57 min 33 sec)
*** Reached end of trace: (2, "traces/canneal_big2.champsimtrace")
*** Reached end of trace: (7, "traces/canneal_big2.champsimtrace")
Heartbeat CPU 2 instructions: 230000001 cycles: 57503806 heartbeat IPC: 4 cumulative IPC: 4 (Simulation time: 02 hr 57 min 33 sec)
Heartbeat CPU 7 instructions: 230000001 cycles: 57503813 heartbeat IPC: 4 cumulative IPC: 4 (Simulation time: 02 hr 57 min 33 sec)
*** Reached end of trace: (4, "traces/canneal_big4.champsimtrace")
*** Reached end of trace: (3, "traces/canneal_big3.champsimtrace")
*** Reached end of trace: (2, "traces/canneal_big2.champsimtrace")
*** Reached end of trace: (7, "traces/canneal_big2.champsimtrace")
*** Reached end of trace: (0, "traces/canneal_big0.champsimtrace")
Heartbeat CPU 0 instructions: 140000042 cycles: 59148961 heartbeat IPC: 2.151 cumulative IPC: 2.132 (Simulation time: 03 hr 03 min 08 sec)
*** Reached end of trace: (5, "traces/canneal_big0.champsimtrace")
Heartbeat CPU 5 instructions: 140000037 cycles: 59151961 heartbeat IPC: 2.151 cumulative IPC: 2.137 (Simulation time: 03 hr 03 min 09 sec)
*** Reached end of trace: (4, "traces/canneal_big4.champsimtrace")
*** Reached end of trace: (3, "traces/canneal_big3.champsimtrace")
Heartbeat CPU 4 instructions: 240000001 cycles: 60003631 heartbeat IPC: 4 cumulative IPC: 4 (Simulation time: 03 hr 05 min 18 sec)
Heartbeat CPU 3 instructions: 240000001 cycles: 60003657 heartbeat IPC: 4 cumulative IPC: 4 (Simulation time: 03 hr 05 min 18 sec)
*** Reached end of trace: (2, "traces/canneal_big2.champsimtrace")
*** Reached end of trace: (7, "traces/canneal_big2.champsimtrace")
Heartbeat CPU 2 instructions: 240000001 cycles: 60003806 heartbeat IPC: 4 cumulative IPC: 4 (Simulation time: 03 hr 05 min 18 sec)
Heartbeat CPU 7 instructions: 240000001 cycles: 60003813 heartbeat IPC: 4 cumulative IPC: 4 (Simulation time: 03 hr 05 min 18 sec)
*** Reached end of trace: (4, "traces/canneal_big4.champsimtrace")
*** Reached end of trace: (3, "traces/canneal_big3.champsimtrace")
*** Reached end of trace: (2, "traces/canneal_big2.champsimtrace")
*** Reached end of trace: (7, "traces/canneal_big2.champsimtrace")
*** Reached end of trace: (0, "traces/canneal_big0.champsimtrace")
*** Reached end of trace: (5, "traces/canneal_big0.champsimtrace")
*** Reached end of trace: (4, "traces/canneal_big4.champsimtrace")
*** Reached end of trace: (3, "traces/canneal_big3.champsimtrace")
Heartbeat CPU 4 instructions: 250000001 cycles: 62503631 heartbeat IPC: 4 cumulative IPC: 4 (Simulation time: 03 hr 11 min 32 sec)
Heartbeat CPU 3 instructions: 250000001 cycles: 62503657 heartbeat IPC: 4 cumulative IPC: 4 (Simulation time: 03 hr 11 min 32 sec)
*** Reached end of trace: (2, "traces/canneal_big2.champsimtrace")
*** Reached end of trace: (7, "traces/canneal_big2.champsimtrace")
Heartbeat CPU 2 instructions: 250000001 cycles: 62503806 heartbeat IPC: 4 cumulative IPC: 4 (Simulation time: 03 hr 11 min 32 sec)
Heartbeat CPU 7 instructions: 250000001 cycles: 62503813 heartbeat IPC: 4 cumulative IPC: 4 (Simulation time: 03 hr 11 min 32 sec)
*** Reached end of trace: (4, "traces/canneal_big4.champsimtrace")
*** Reached end of trace: (3, "traces/canneal_big3.champsimtrace")
*** Reached end of trace: (2, "traces/canneal_big2.champsimtrace")
*** Reached end of trace: (7, "traces/canneal_big2.champsimtrace")
*** Reached end of trace: (0, "traces/canneal_big0.champsimtrace")
Heartbeat CPU 0 instructions: 150000045 cycles: 63774610 heartbeat IPC: 2.162 cumulative IPC: 2.136 (Simulation time: 03 hr 14 min 36 sec)
*** Reached end of trace: (5, "traces/canneal_big0.champsimtrace")
Heartbeat CPU 5 instructions: 150000040 cycles: 63783747 heartbeat IPC: 2.159 cumulative IPC: 2.14 (Simulation time: 03 hr 14 min 37 sec)
*** Reached end of trace: (4, "traces/canneal_big4.champsimtrace")
*** Reached end of trace: (3, "traces/canneal_big3.champsimtrace")
Heartbeat CPU 4 instructions: 260000001 cycles: 65003631 heartbeat IPC: 4 cumulative IPC: 4 (Simulation time: 03 hr 18 min 05 sec)
Heartbeat CPU 3 instructions: 260000001 cycles: 65003657 heartbeat IPC: 4 cumulative IPC: 4 (Simulation time: 03 hr 18 min 05 sec)
*** Reached end of trace: (2, "traces/canneal_big2.champsimtrace")
*** Reached end of trace: (7, "traces/canneal_big2.champsimtrace")
Heartbeat CPU 2 instructions: 260000001 cycles: 65003806 heartbeat IPC: 4 cumulative IPC: 4 (Simulation time: 03 hr 18 min 05 sec)
Heartbeat CPU 7 instructions: 260000001 cycles: 65003813 heartbeat IPC: 4 cumulative IPC: 4 (Simulation time: 03 hr 18 min 05 sec)
*** Reached end of trace: (0, "traces/canneal_big0.champsimtrace")
*** Reached end of trace: (5, "traces/canneal_big0.champsimtrace")
*** Reached end of trace: (4, "traces/canneal_big4.champsimtrace")
*** Reached end of trace: (3, "traces/canneal_big3.champsimtrace")
*** Reached end of trace: (2, "traces/canneal_big2.champsimtrace")
*** Reached end of trace: (7, "traces/canneal_big2.champsimtrace")
*** Reached end of trace: (1, "traces/canneal_big1.champsimtrace")
Heartbeat CPU 1 instructions: 60000010 cycles: 67102676 heartbeat IPC: 0.2697 cumulative IPC: 0.2644 (Simulation time: 03 hr 25 min 46 sec)
*** Reached end of trace: (4, "traces/canneal_big4.champsimtrace")
*** Reached end of trace: (3, "traces/canneal_big3.champsimtrace")
Heartbeat CPU 4 instructions: 270000001 cycles: 67503631 heartbeat IPC: 4 cumulative IPC: 4 (Simulation time: 03 hr 27 min 13 sec)
Heartbeat CPU 3 instructions: 270000001 cycles: 67503657 heartbeat IPC: 4 cumulative IPC: 4 (Simulation time: 03 hr 27 min 13 sec)
*** Reached end of trace: (2, "traces/canneal_big2.champsimtrace")
*** Reached end of trace: (7, "traces/canneal_big2.champsimtrace")
Heartbeat CPU 2 instructions: 270000001 cycles: 67503806 heartbeat IPC: 4 cumulative IPC: 4 (Simulation time: 03 hr 27 min 13 sec)
Heartbeat CPU 7 instructions: 270000001 cycles: 67503813 heartbeat IPC: 4 cumulative IPC: 4 (Simulation time: 03 hr 27 min 13 sec)
*** Reached end of trace: (0, "traces/canneal_big0.champsimtrace")
Heartbeat CPU 0 instructions: 160000048 cycles: 68405501 heartbeat IPC: 2.159 cumulative IPC: 2.139 (Simulation time: 03 hr 30 min 37 sec)
*** Reached end of trace: (5, "traces/canneal_big0.champsimtrace")
Heartbeat CPU 5 instructions: 160000043 cycles: 68406678 heartbeat IPC: 2.163 cumulative IPC: 2.143 (Simulation time: 03 hr 30 min 38 sec)
*** Reached end of trace: (6, "traces/canneal_big1.champsimtrace")
Heartbeat CPU 6 instructions: 60000010 cycles: 68739718 heartbeat IPC: 0.2593 cumulative IPC: 0.2593 (Simulation time: 03 hr 31 min 46 sec)
*** Reached end of trace: (4, "traces/canneal_big4.champsimtrace")
*** Reached end of trace: (3, "traces/canneal_big3.champsimtrace")
*** Reached end of trace: (2, "traces/canneal_big2.champsimtrace")
*** Reached end of trace: (7, "traces/canneal_big2.champsimtrace")
*** Reached end of trace: (4, "traces/canneal_big4.champsimtrace")
*** Reached end of trace: (3, "traces/canneal_big3.champsimtrace")
Heartbeat CPU 4 instructions: 280000001 cycles: 70003631 heartbeat IPC: 4 cumulative IPC: 4 (Simulation time: 03 hr 35 min 04 sec)
Heartbeat CPU 3 instructions: 280000001 cycles: 70003657 heartbeat IPC: 4 cumulative IPC: 4 (Simulation time: 03 hr 35 min 04 sec)
*** Reached end of trace: (2, "traces/canneal_big2.champsimtrace")
*** Reached end of trace: (7, "traces/canneal_big2.champsimtrace")
Heartbeat CPU 2 instructions: 280000001 cycles: 70003806 heartbeat IPC: 4 cumulative IPC: 4 (Simulation time: 03 hr 35 min 04 sec)
Heartbeat CPU 7 instructions: 280000001 cycles: 70003813 heartbeat IPC: 4 cumulative IPC: 4 (Simulation time: 03 hr 35 min 04 sec)
*** Reached end of trace: (0, "traces/canneal_big0.champsimtrace")
*** Reached end of trace: (5, "traces/canneal_big0.champsimtrace")
*** Reached end of trace: (4, "traces/canneal_big4.champsimtrace")
*** Reached end of trace: (3, "traces/canneal_big3.champsimtrace")
*** Reached end of trace: (2, "traces/canneal_big2.champsimtrace")
*** Reached end of trace: (7, "traces/canneal_big2.champsimtrace")
*** Reached end of trace: (4, "traces/canneal_big4.champsimtrace")
*** Reached end of trace: (3, "traces/canneal_big3.champsimtrace")
Heartbeat CPU 4 instructions: 290000001 cycles: 72503631 heartbeat IPC: 4 cumulative IPC: 4 (Simulation time: 03 hr 43 min 10 sec)
Heartbeat CPU 3 instructions: 290000001 cycles: 72503657 heartbeat IPC: 4 cumulative IPC: 4 (Simulation time: 03 hr 43 min 10 sec)
*** Reached end of trace: (2, "traces/canneal_big2.champsimtrace")
*** Reached end of trace: (7, "traces/canneal_big2.champsimtrace")
Heartbeat CPU 2 instructions: 290000001 cycles: 72503806 heartbeat IPC: 4 cumulative IPC: 4 (Simulation time: 03 hr 43 min 10 sec)
Heartbeat CPU 7 instructions: 290000001 cycles: 72503813 heartbeat IPC: 4 cumulative IPC: 4 (Simulation time: 03 hr 43 min 10 sec)
*** Reached end of trace: (0, "traces/canneal_big0.champsimtrace")
Heartbeat CPU 0 instructions: 170000048 cycles: 73051047 heartbeat IPC: 2.153 cumulative IPC: 2.14 (Simulation time: 03 hr 44 min 54 sec)
*** Reached end of trace: (5, "traces/canneal_big0.champsimtrace")
Heartbeat CPU 5 instructions: 170000043 cycles: 73053825 heartbeat IPC: 2.152 cumulative IPC: 2.144 (Simulation time: 03 hr 44 min 55 sec)
*** Reached end of trace: (4, "traces/canneal_big4.champsimtrace")
*** Reached end of trace: (3, "traces/canneal_big3.champsimtrace")
*** Reached end of trace: (2, "traces/canneal_big2.champsimtrace")
*** Reached end of trace: (7, "traces/canneal_big2.champsimtrace")
*** Reached end of trace: (4, "traces/canneal_big4.champsimtrace")
*** Reached end of trace: (3, "traces/canneal_big3.champsimtrace")
Heartbeat CPU 4 instructions: 300000001 cycles: 75003631 heartbeat IPC: 4 cumulative IPC: 4 (Simulation time: 03 hr 50 min 05 sec)
Heartbeat CPU 3 instructions: 300000001 cycles: 75003657 heartbeat IPC: 4 cumulative IPC: 4 (Simulation time: 03 hr 50 min 05 sec)
*** Reached end of trace: (2, "traces/canneal_big2.champsimtrace")
*** Reached end of trace: (7, "traces/canneal_big2.champsimtrace")
Heartbeat CPU 2 instructions: 300000001 cycles: 75003806 heartbeat IPC: 4 cumulative IPC: 4 (Simulation time: 03 hr 50 min 05 sec)
Heartbeat CPU 7 instructions: 300000001 cycles: 75003813 heartbeat IPC: 4 cumulative IPC: 4 (Simulation time: 03 hr 50 min 05 sec)
*** Reached end of trace: (0, "traces/canneal_big0.champsimtrace")
*** Reached end of trace: (5, "traces/canneal_big0.champsimtrace")
*** Reached end of trace: (4, "traces/canneal_big4.champsimtrace")
*** Reached end of trace: (3, "traces/canneal_big3.champsimtrace")
*** Reached end of trace: (2, "traces/canneal_big2.champsimtrace")
*** Reached end of trace: (7, "traces/canneal_big2.champsimtrace")
Simulation finished CPU 5 instructions: 100000000 cycles: 46785182 cumulative IPC: 2.137 (Simulation time: 03 hr 56 min 58 sec)
Simulation finished CPU 0 instructions: 100000000 cycles: 46839236 cumulative IPC: 2.135 (Simulation time: 03 hr 57 min 09 sec)
*** Reached end of trace: (4, "traces/canneal_big4.champsimtrace")
*** Reached end of trace: (3, "traces/canneal_big3.champsimtrace")
Heartbeat CPU 4 instructions: 310000001 cycles: 77503631 heartbeat IPC: 4 cumulative IPC: 4 (Simulation time: 03 hr 59 min 03 sec)
Heartbeat CPU 3 instructions: 310000001 cycles: 77503657 heartbeat IPC: 4 cumulative IPC: 4 (Simulation time: 03 hr 59 min 03 sec)
*** Reached end of trace: (2, "traces/canneal_big2.champsimtrace")
*** Reached end of trace: (7, "traces/canneal_big2.champsimtrace")
Heartbeat CPU 2 instructions: 310000001 cycles: 77503806 heartbeat IPC: 4 cumulative IPC: 4 (Simulation time: 03 hr 59 min 03 sec)
Heartbeat CPU 7 instructions: 310000001 cycles: 77503813 heartbeat IPC: 4 cumulative IPC: 4 (Simulation time: 03 hr 59 min 03 sec)
*** Reached end of trace: (0, "traces/canneal_big0.champsimtrace")
Heartbeat CPU 0 instructions: 180000049 cycles: 77698569 heartbeat IPC: 2.152 cumulative IPC: 2.141 (Simulation time: 03 hr 59 min 49 sec)
*** Reached end of trace: (5, "traces/canneal_big0.champsimtrace")
Heartbeat CPU 5 instructions: 180000044 cycles: 77703159 heartbeat IPC: 2.151 cumulative IPC: 2.144 (Simulation time: 03 hr 59 min 50 sec)
*** Reached end of trace: (4, "traces/canneal_big4.champsimtrace")
*** Reached end of trace: (3, "traces/canneal_big3.champsimtrace")
*** Reached end of trace: (2, "traces/canneal_big2.champsimtrace")
*** Reached end of trace: (7, "traces/canneal_big2.champsimtrace")
*** Reached end of trace: (4, "traces/canneal_big4.champsimtrace")
*** Reached end of trace: (3, "traces/canneal_big3.champsimtrace")
Heartbeat CPU 4 instructions: 320000001 cycles: 80003631 heartbeat IPC: 4 cumulative IPC: 4 (Simulation time: 04 hr 06 min 30 sec)
Heartbeat CPU 3 instructions: 320000001 cycles: 80003657 heartbeat IPC: 4 cumulative IPC: 4 (Simulation time: 04 hr 06 min 30 sec)
*** Reached end of trace: (2, "traces/canneal_big2.champsimtrace")
*** Reached end of trace: (7, "traces/canneal_big2.champsimtrace")
Heartbeat CPU 2 instructions: 320000001 cycles: 80003806 heartbeat IPC: 4 cumulative IPC: 4 (Simulation time: 04 hr 06 min 30 sec)
Heartbeat CPU 7 instructions: 320000001 cycles: 80003813 heartbeat IPC: 4 cumulative IPC: 4 (Simulation time: 04 hr 06 min 30 sec)
*** Reached end of trace: (0, "traces/canneal_big0.champsimtrace")
*** Reached end of trace: (5, "traces/canneal_big0.champsimtrace")
*** Reached end of trace: (4, "traces/canneal_big4.champsimtrace")
*** Reached end of trace: (3, "traces/canneal_big3.champsimtrace")
*** Reached end of trace: (2, "traces/canneal_big2.champsimtrace")
*** Reached end of trace: (7, "traces/canneal_big2.champsimtrace")
*** Reached end of trace: (0, "traces/canneal_big0.champsimtrace")
Heartbeat CPU 0 instructions: 190000052 cycles: 82318646 heartbeat IPC: 2.164 cumulative IPC: 2.143 (Simulation time: 04 hr 13 min 03 sec)
*** Reached end of trace: (5, "traces/canneal_big0.champsimtrace")
Heartbeat CPU 5 instructions: 190000047 cycles: 82321425 heartbeat IPC: 2.165 cumulative IPC: 2.146 (Simulation time: 04 hr 13 min 04 sec)
*** Reached end of trace: (4, "traces/canneal_big4.champsimtrace")
*** Reached end of trace: (3, "traces/canneal_big3.champsimtrace")
Heartbeat CPU 4 instructions: 330000001 cycles: 82503631 heartbeat IPC: 4 cumulative IPC: 4 (Simulation time: 04 hr 13 min 34 sec)
Heartbeat CPU 3 instructions: 330000001 cycles: 82503657 heartbeat IPC: 4 cumulative IPC: 4 (Simulation time: 04 hr 13 min 34 sec)
*** Reached end of trace: (2, "traces/canneal_big2.champsimtrace")
*** Reached end of trace: (7, "traces/canneal_big2.champsimtrace")
Heartbeat CPU 2 instructions: 330000001 cycles: 82503806 heartbeat IPC: 4 cumulative IPC: 4 (Simulation time: 04 hr 13 min 34 sec)
Heartbeat CPU 7 instructions: 330000001 cycles: 82503813 heartbeat IPC: 4 cumulative IPC: 4 (Simulation time: 04 hr 13 min 34 sec)
*** Reached end of trace: (4, "traces/canneal_big4.champsimtrace")
*** Reached end of trace: (3, "traces/canneal_big3.champsimtrace")
*** Reached end of trace: (2, "traces/canneal_big2.champsimtrace")
*** Reached end of trace: (7, "traces/canneal_big2.champsimtrace")
*** Reached end of trace: (0, "traces/canneal_big0.champsimtrace")
*** Reached end of trace: (5, "traces/canneal_big0.champsimtrace")
*** Reached end of trace: (4, "traces/canneal_big4.champsimtrace")
*** Reached end of trace: (3, "traces/canneal_big3.champsimtrace")
Heartbeat CPU 4 instructions: 340000001 cycles: 85003631 heartbeat IPC: 4 cumulative IPC: 4 (Simulation time: 04 hr 19 min 55 sec)
Heartbeat CPU 3 instructions: 340000001 cycles: 85003657 heartbeat IPC: 4 cumulative IPC: 4 (Simulation time: 04 hr 19 min 55 sec)
*** Reached end of trace: (2, "traces/canneal_big2.champsimtrace")
*** Reached end of trace: (7, "traces/canneal_big2.champsimtrace")
Heartbeat CPU 2 instructions: 340000001 cycles: 85003806 heartbeat IPC: 4 cumulative IPC: 4 (Simulation time: 04 hr 19 min 55 sec)
Heartbeat CPU 7 instructions: 340000001 cycles: 85003813 heartbeat IPC: 4 cumulative IPC: 4 (Simulation time: 04 hr 19 min 55 sec)
*** Reached end of trace: (1, "traces/canneal_big1.champsimtrace")
*** Reached end of trace: (4, "traces/canneal_big4.champsimtrace")
*** Reached end of trace: (3, "traces/canneal_big3.champsimtrace")
*** Reached end of trace: (2, "traces/canneal_big2.champsimtrace")
*** Reached end of trace: (7, "traces/canneal_big2.champsimtrace")
*** Reached end of trace: (0, "traces/canneal_big0.champsimtrace")
Heartbeat CPU 0 instructions: 200000055 cycles: 86907376 heartbeat IPC: 2.179 cumulative IPC: 2.146 (Simulation time: 04 hr 26 min 13 sec)
*** Reached end of trace: (5, "traces/canneal_big0.champsimtrace")
Heartbeat CPU 5 instructions: 200000050 cycles: 86913139 heartbeat IPC: 2.178 cumulative IPC: 2.149 (Simulation time: 04 hr 26 min 14 sec)
*** Reached end of trace: (4, "traces/canneal_big4.champsimtrace")
*** Reached end of trace: (3, "traces/canneal_big3.champsimtrace")
Heartbeat CPU 4 instructions: 350000001 cycles: 87503631 heartbeat IPC: 4 cumulative IPC: 4 (Simulation time: 04 hr 28 min 21 sec)
Heartbeat CPU 3 instructions: 350000001 cycles: 87503657 heartbeat IPC: 4 cumulative IPC: 4 (Simulation time: 04 hr 28 min 21 sec)
*** Reached end of trace: (2, "traces/canneal_big2.champsimtrace")
*** Reached end of trace: (7, "traces/canneal_big2.champsimtrace")
Heartbeat CPU 2 instructions: 350000001 cycles: 87503806 heartbeat IPC: 4 cumulative IPC: 4 (Simulation time: 04 hr 28 min 21 sec)
Heartbeat CPU 7 instructions: 350000001 cycles: 87503813 heartbeat IPC: 4 cumulative IPC: 4 (Simulation time: 04 hr 28 min 21 sec)
*** Reached end of trace: (6, "traces/canneal_big1.champsimtrace")
*** Reached end of trace: (4, "traces/canneal_big4.champsimtrace")
*** Reached end of trace: (3, "traces/canneal_big3.champsimtrace")
*** Reached end of trace: (2, "traces/canneal_big2.champsimtrace")
*** Reached end of trace: (7, "traces/canneal_big2.champsimtrace")
*** Reached end of trace: (0, "traces/canneal_big0.champsimtrace")
*** Reached end of trace: (5, "traces/canneal_big0.champsimtrace")
*** Reached end of trace: (4, "traces/canneal_big4.champsimtrace")
*** Reached end of trace: (3, "traces/canneal_big3.champsimtrace")
Heartbeat CPU 4 instructions: 360000001 cycles: 90003631 heartbeat IPC: 4 cumulative IPC: 4 (Simulation time: 04 hr 34 min 57 sec)
Heartbeat CPU 3 instructions: 360000001 cycles: 90003657 heartbeat IPC: 4 cumulative IPC: 4 (Simulation time: 04 hr 34 min 57 sec)
*** Reached end of trace: (2, "traces/canneal_big2.champsimtrace")
*** Reached end of trace: (7, "traces/canneal_big2.champsimtrace")
Heartbeat CPU 2 instructions: 360000001 cycles: 90003806 heartbeat IPC: 4 cumulative IPC: 4 (Simulation time: 04 hr 34 min 57 sec)
Heartbeat CPU 7 instructions: 360000001 cycles: 90003813 heartbeat IPC: 4 cumulative IPC: 4 (Simulation time: 04 hr 34 min 57 sec)
*** Reached end of trace: (4, "traces/canneal_big4.champsimtrace")
*** Reached end of trace: (3, "traces/canneal_big3.champsimtrace")
*** Reached end of trace: (2, "traces/canneal_big2.champsimtrace")
*** Reached end of trace: (7, "traces/canneal_big2.champsimtrace")
*** Reached end of trace: (0, "traces/canneal_big0.champsimtrace")
Heartbeat CPU 0 instructions: 210000058 cycles: 91548162 heartbeat IPC: 2.155 cumulative IPC: 2.147 (Simulation time: 04 hr 40 min 07 sec)
*** Reached end of trace: (5, "traces/canneal_big0.champsimtrace")
Heartbeat CPU 5 instructions: 210000053 cycles: 91550235 heartbeat IPC: 2.157 cumulative IPC: 2.149 (Simulation time: 04 hr 40 min 08 sec)
*** Reached end of trace: (4, "traces/canneal_big4.champsimtrace")
*** Reached end of trace: (3, "traces/canneal_big3.champsimtrace")
Heartbeat CPU 4 instructions: 370000001 cycles: 92503631 heartbeat IPC: 4 cumulative IPC: 4 (Simulation time: 04 hr 43 min 39 sec)
Heartbeat CPU 3 instructions: 370000001 cycles: 92503657 heartbeat IPC: 4 cumulative IPC: 4 (Simulation time: 04 hr 43 min 39 sec)
*** Reached end of trace: (2, "traces/canneal_big2.champsimtrace")
*** Reached end of trace: (7, "traces/canneal_big2.champsimtrace")
Heartbeat CPU 2 instructions: 370000001 cycles: 92503806 heartbeat IPC: 4 cumulative IPC: 4 (Simulation time: 04 hr 43 min 39 sec)
Heartbeat CPU 7 instructions: 370000001 cycles: 92503813 heartbeat IPC: 4 cumulative IPC: 4 (Simulation time: 04 hr 43 min 39 sec)
*** Reached end of trace: (4, "traces/canneal_big4.champsimtrace")
*** Reached end of trace: (3, "traces/canneal_big3.champsimtrace")
*** Reached end of trace: (2, "traces/canneal_big2.champsimtrace")
*** Reached end of trace: (7, "traces/canneal_big2.champsimtrace")
*** Reached end of trace: (0, "traces/canneal_big0.champsimtrace")
*** Reached end of trace: (5, "traces/canneal_big0.champsimtrace")
*** Reached end of trace: (4, "traces/canneal_big4.champsimtrace")
*** Reached end of trace: (3, "traces/canneal_big3.champsimtrace")
Heartbeat CPU 4 instructions: 380000001 cycles: 95003631 heartbeat IPC: 4 cumulative IPC: 4 (Simulation time: 04 hr 51 min 58 sec)
Heartbeat CPU 3 instructions: 380000001 cycles: 95003657 heartbeat IPC: 4 cumulative IPC: 4 (Simulation time: 04 hr 51 min 58 sec)
*** Reached end of trace: (2, "traces/canneal_big2.champsimtrace")
*** Reached end of trace: (7, "traces/canneal_big2.champsimtrace")
Heartbeat CPU 2 instructions: 380000001 cycles: 95003806 heartbeat IPC: 4 cumulative IPC: 4 (Simulation time: 04 hr 51 min 58 sec)
Heartbeat CPU 7 instructions: 380000001 cycles: 95003813 heartbeat IPC: 4 cumulative IPC: 4 (Simulation time: 04 hr 51 min 58 sec)
*** Reached end of trace: (0, "traces/canneal_big0.champsimtrace")
Heartbeat CPU 0 instructions: 220000061 cycles: 96134021 heartbeat IPC: 2.181 cumulative IPC: 2.149 (Simulation time: 04 hr 55 min 00 sec)
*** Reached end of trace: (5, "traces/canneal_big0.champsimtrace")
Heartbeat CPU 5 instructions: 220000053 cycles: 96137126 heartbeat IPC: 2.18 cumulative IPC: 2.152 (Simulation time: 04 hr 55 min 01 sec)
*** Reached end of trace: (4, "traces/canneal_big4.champsimtrace")
*** Reached end of trace: (3, "traces/canneal_big3.champsimtrace")
*** Reached end of trace: (2, "traces/canneal_big2.champsimtrace")
*** Reached end of trace: (7, "traces/canneal_big2.champsimtrace")
*** Reached end of trace: (4, "traces/canneal_big4.champsimtrace")
*** Reached end of trace: (3, "traces/canneal_big3.champsimtrace")
Heartbeat CPU 4 instructions: 390000001 cycles: 97503631 heartbeat IPC: 4 cumulative IPC: 4 (Simulation time: 04 hr 58 min 46 sec)
Heartbeat CPU 3 instructions: 390000001 cycles: 97503657 heartbeat IPC: 4 cumulative IPC: 4 (Simulation time: 04 hr 58 min 46 sec)
*** Reached end of trace: (2, "traces/canneal_big2.champsimtrace")
*** Reached end of trace: (7, "traces/canneal_big2.champsimtrace")
Heartbeat CPU 2 instructions: 390000001 cycles: 97503806 heartbeat IPC: 4 cumulative IPC: 4 (Simulation time: 04 hr 58 min 46 sec)
Heartbeat CPU 7 instructions: 390000001 cycles: 97503813 heartbeat IPC: 4 cumulative IPC: 4 (Simulation time: 04 hr 58 min 46 sec)
*** Reached end of trace: (0, "traces/canneal_big0.champsimtrace")
*** Reached end of trace: (5, "traces/canneal_big0.champsimtrace")
*** Reached end of trace: (4, "traces/canneal_big4.champsimtrace")
*** Reached end of trace: (3, "traces/canneal_big3.champsimtrace")
*** Reached end of trace: (2, "traces/canneal_big2.champsimtrace")
*** Reached end of trace: (7, "traces/canneal_big2.champsimtrace")
*** Reached end of trace: (4, "traces/canneal_big4.champsimtrace")
*** Reached end of trace: (3, "traces/canneal_big3.champsimtrace")
Heartbeat CPU 4 instructions: 400000001 cycles: 100003631 heartbeat IPC: 4 cumulative IPC: 4 (Simulation time: 05 hr 05 min 03 sec)
Heartbeat CPU 3 instructions: 400000001 cycles: 100003657 heartbeat IPC: 4 cumulative IPC: 4 (Simulation time: 05 hr 05 min 03 sec)
*** Reached end of trace: (2, "traces/canneal_big2.champsimtrace")
*** Reached end of trace: (7, "traces/canneal_big2.champsimtrace")
Heartbeat CPU 2 instructions: 400000001 cycles: 100003806 heartbeat IPC: 4 cumulative IPC: 4 (Simulation time: 05 hr 05 min 03 sec)
Heartbeat CPU 7 instructions: 400000001 cycles: 100003813 heartbeat IPC: 4 cumulative IPC: 4 (Simulation time: 05 hr 05 min 03 sec)
*** Reached end of trace: (0, "traces/canneal_big0.champsimtrace")
Heartbeat CPU 0 instructions: 230000064 cycles: 100708535 heartbeat IPC: 2.186 cumulative IPC: 2.152 (Simulation time: 05 hr 07 min 35 sec)
*** Reached end of trace: (5, "traces/canneal_big0.champsimtrace")
Heartbeat CPU 5 instructions: 230000054 cycles: 100712133 heartbeat IPC: 2.186 cumulative IPC: 2.154 (Simulation time: 05 hr 07 min 36 sec)
*** Reached end of trace: (4, "traces/canneal_big4.champsimtrace")
*** Reached end of trace: (3, "traces/canneal_big3.champsimtrace")
*** Reached end of trace: (2, "traces/canneal_big2.champsimtrace")
*** Reached end of trace: (7, "traces/canneal_big2.champsimtrace")
*** Reached end of trace: (4, "traces/canneal_big4.champsimtrace")
*** Reached end of trace: (3, "traces/canneal_big3.champsimtrace")
Heartbeat CPU 4 instructions: 410000001 cycles: 102503631 heartbeat IPC: 4 cumulative IPC: 4 (Simulation time: 05 hr 13 min 11 sec)
Heartbeat CPU 3 instructions: 410000001 cycles: 102503657 heartbeat IPC: 4 cumulative IPC: 4 (Simulation time: 05 hr 13 min 11 sec)
*** Reached end of trace: (2, "traces/canneal_big2.champsimtrace")
*** Reached end of trace: (7, "traces/canneal_big2.champsimtrace")
Heartbeat CPU 2 instructions: 410000001 cycles: 102503806 heartbeat IPC: 4 cumulative IPC: 4 (Simulation time: 05 hr 13 min 11 sec)
Heartbeat CPU 7 instructions: 410000001 cycles: 102503813 heartbeat IPC: 4 cumulative IPC: 4 (Simulation time: 05 hr 13 min 11 sec)
*** Reached end of trace: (0, "traces/canneal_big0.champsimtrace")
*** Reached end of trace: (5, "traces/canneal_big0.champsimtrace")
*** Reached end of trace: (4, "traces/canneal_big4.champsimtrace")
*** Reached end of trace: (3, "traces/canneal_big3.champsimtrace")
*** Reached end of trace: (2, "traces/canneal_big2.champsimtrace")
*** Reached end of trace: (7, "traces/canneal_big2.champsimtrace")
*** Reached end of trace: (4, "traces/canneal_big4.champsimtrace")
*** Reached end of trace: (3, "traces/canneal_big3.champsimtrace")
Heartbeat CPU 4 instructions: 420000001 cycles: 105003631 heartbeat IPC: 4 cumulative IPC: 4 (Simulation time: 05 hr 21 min 01 sec)
Heartbeat CPU 3 instructions: 420000001 cycles: 105003657 heartbeat IPC: 4 cumulative IPC: 4 (Simulation time: 05 hr 21 min 01 sec)
*** Reached end of trace: (2, "traces/canneal_big2.champsimtrace")
*** Reached end of trace: (7, "traces/canneal_big2.champsimtrace")
Heartbeat CPU 2 instructions: 420000001 cycles: 105003806 heartbeat IPC: 4 cumulative IPC: 4 (Simulation time: 05 hr 21 min 01 sec)
Heartbeat CPU 7 instructions: 420000001 cycles: 105003813 heartbeat IPC: 4 cumulative IPC: 4 (Simulation time: 05 hr 21 min 01 sec)
*** Reached end of trace: (0, "traces/canneal_big0.champsimtrace")
Heartbeat CPU 0 instructions: 240000067 cycles: 105287062 heartbeat IPC: 2.184 cumulative IPC: 2.154 (Simulation time: 05 hr 21 min 55 sec)
*** Reached end of trace: (5, "traces/canneal_big0.champsimtrace")
Heartbeat CPU 5 instructions: 240000057 cycles: 105288009 heartbeat IPC: 2.185 cumulative IPC: 2.156 (Simulation time: 05 hr 21 min 55 sec)
*** Reached end of trace: (1, "traces/canneal_big1.champsimtrace")
Heartbeat CPU 1 instructions: 70000012 cycles: 105661633 heartbeat IPC: 0.2593 cumulative IPC: 0.2618 (Simulation time: 05 hr 22 min 57 sec)
*** Reached end of trace: (4, "traces/canneal_big4.champsimtrace")
*** Reached end of trace: (3, "traces/canneal_big3.champsimtrace")
*** Reached end of trace: (2, "traces/canneal_big2.champsimtrace")
*** Reached end of trace: (7, "traces/canneal_big2.champsimtrace")
*** Reached end of trace: (6, "traces/canneal_big1.champsimtrace")
Heartbeat CPU 6 instructions: 70000012 cycles: 107450344 heartbeat IPC: 0.2583 cumulative IPC: 0.2588 (Simulation time: 05 hr 27 min 21 sec)
*** Reached end of trace: (4, "traces/canneal_big4.champsimtrace")
*** Reached end of trace: (3, "traces/canneal_big3.champsimtrace")
Heartbeat CPU 4 instructions: 430000001 cycles: 107503631 heartbeat IPC: 4 cumulative IPC: 4 (Simulation time: 05 hr 27 min 29 sec)
Heartbeat CPU 3 instructions: 430000001 cycles: 107503657 heartbeat IPC: 4 cumulative IPC: 4 (Simulation time: 05 hr 27 min 29 sec)
*** Reached end of trace: (2, "traces/canneal_big2.champsimtrace")
*** Reached end of trace: (7, "traces/canneal_big2.champsimtrace")
Heartbeat CPU 2 instructions: 430000001 cycles: 107503806 heartbeat IPC: 4 cumulative IPC: 4 (Simulation time: 05 hr 27 min 29 sec)
Heartbeat CPU 7 instructions: 430000001 cycles: 107503813 heartbeat IPC: 4 cumulative IPC: 4 (Simulation time: 05 hr 27 min 29 sec)
*** Reached end of trace: (0, "traces/canneal_big0.champsimtrace")
*** Reached end of trace: (5, "traces/canneal_big0.champsimtrace")
*** Reached end of trace: (4, "traces/canneal_big4.champsimtrace")
*** Reached end of trace: (3, "traces/canneal_big3.champsimtrace")
*** Reached end of trace: (2, "traces/canneal_big2.champsimtrace")
*** Reached end of trace: (7, "traces/canneal_big2.champsimtrace")
*** Reached end of trace: (0, "traces/canneal_big0.champsimtrace")
Heartbeat CPU 0 instructions: 250000070 cycles: 109817956 heartbeat IPC: 2.207 cumulative IPC: 2.157 (Simulation time: 05 hr 34 min 25 sec)
*** Reached end of trace: (5, "traces/canneal_big0.champsimtrace")
Heartbeat CPU 5 instructions: 250000060 cycles: 109819925 heartbeat IPC: 2.207 cumulative IPC: 2.159 (Simulation time: 05 hr 34 min 25 sec)
*** Reached end of trace: (4, "traces/canneal_big4.champsimtrace")
*** Reached end of trace: (3, "traces/canneal_big3.champsimtrace")
Heartbeat CPU 4 instructions: 440000001 cycles: 110003631 heartbeat IPC: 4 cumulative IPC: 4 (Simulation time: 05 hr 35 min 02 sec)
Heartbeat CPU 3 instructions: 440000001 cycles: 110003657 heartbeat IPC: 4 cumulative IPC: 4 (Simulation time: 05 hr 35 min 02 sec)
*** Reached end of trace: (2, "traces/canneal_big2.champsimtrace")
*** Reached end of trace: (7, "traces/canneal_big2.champsimtrace")
Heartbeat CPU 2 instructions: 440000001 cycles: 110003806 heartbeat IPC: 4 cumulative IPC: 4 (Simulation time: 05 hr 35 min 03 sec)
Heartbeat CPU 7 instructions: 440000001 cycles: 110003813 heartbeat IPC: 4 cumulative IPC: 4 (Simulation time: 05 hr 35 min 03 sec)
*** Reached end of trace: (4, "traces/canneal_big4.champsimtrace")
*** Reached end of trace: (3, "traces/canneal_big3.champsimtrace")
*** Reached end of trace: (2, "traces/canneal_big2.champsimtrace")
*** Reached end of trace: (7, "traces/canneal_big2.champsimtrace")
*** Reached end of trace: (0, "traces/canneal_big0.champsimtrace")
*** Reached end of trace: (5, "traces/canneal_big0.champsimtrace")
*** Reached end of trace: (4, "traces/canneal_big4.champsimtrace")
*** Reached end of trace: (3, "traces/canneal_big3.champsimtrace")
Heartbeat CPU 4 instructions: 450000001 cycles: 112503631 heartbeat IPC: 4 cumulative IPC: 4 (Simulation time: 05 hr 43 min 58 sec)
Heartbeat CPU 3 instructions: 450000001 cycles: 112503657 heartbeat IPC: 4 cumulative IPC: 4 (Simulation time: 05 hr 43 min 58 sec)
*** Reached end of trace: (2, "traces/canneal_big2.champsimtrace")
*** Reached end of trace: (7, "traces/canneal_big2.champsimtrace")
Heartbeat CPU 2 instructions: 450000001 cycles: 112503806 heartbeat IPC: 4 cumulative IPC: 4 (Simulation time: 05 hr 43 min 58 sec)
Heartbeat CPU 7 instructions: 450000001 cycles: 112503813 heartbeat IPC: 4 cumulative IPC: 4 (Simulation time: 05 hr 43 min 58 sec)
*** Reached end of trace: (4, "traces/canneal_big4.champsimtrace")
*** Reached end of trace: (3, "traces/canneal_big3.champsimtrace")
*** Reached end of trace: (2, "traces/canneal_big2.champsimtrace")
*** Reached end of trace: (7, "traces/canneal_big2.champsimtrace")
*** Reached end of trace: (0, "traces/canneal_big0.champsimtrace")
Heartbeat CPU 0 instructions: 260000073 cycles: 114355646 heartbeat IPC: 2.204 cumulative IPC: 2.159 (Simulation time: 05 hr 50 min 32 sec)
*** Reached end of trace: (5, "traces/canneal_big0.champsimtrace")
Heartbeat CPU 5 instructions: 260000063 cycles: 114363325 heartbeat IPC: 2.201 cumulative IPC: 2.161 (Simulation time: 05 hr 50 min 34 sec)
*** Reached end of trace: (4, "traces/canneal_big4.champsimtrace")
*** Reached end of trace: (3, "traces/canneal_big3.champsimtrace")
Heartbeat CPU 4 instructions: 460000001 cycles: 115003631 heartbeat IPC: 4 cumulative IPC: 4 (Simulation time: 05 hr 52 min 58 sec)
Heartbeat CPU 3 instructions: 460000001 cycles: 115003657 heartbeat IPC: 4 cumulative IPC: 4 (Simulation time: 05 hr 52 min 58 sec)
*** Reached end of trace: (2, "traces/canneal_big2.champsimtrace")
*** Reached end of trace: (7, "traces/canneal_big2.champsimtrace")
Heartbeat CPU 2 instructions: 460000001 cycles: 115003806 heartbeat IPC: 4 cumulative IPC: 4 (Simulation time: 05 hr 52 min 58 sec)
Heartbeat CPU 7 instructions: 460000001 cycles: 115003813 heartbeat IPC: 4 cumulative IPC: 4 (Simulation time: 05 hr 52 min 58 sec)
*** Reached end of trace: (4, "traces/canneal_big4.champsimtrace")
*** Reached end of trace: (3, "traces/canneal_big3.champsimtrace")
*** Reached end of trace: (2, "traces/canneal_big2.champsimtrace")
*** Reached end of trace: (7, "traces/canneal_big2.champsimtrace")
*** Reached end of trace: (0, "traces/canneal_big0.champsimtrace")
*** Reached end of trace: (5, "traces/canneal_big0.champsimtrace")
*** Reached end of trace: (4, "traces/canneal_big4.champsimtrace")
*** Reached end of trace: (3, "traces/canneal_big3.champsimtrace")
Heartbeat CPU 4 instructions: 470000001 cycles: 117503631 heartbeat IPC: 4 cumulative IPC: 4 (Simulation time: 06 hr 00 min 11 sec)
Heartbeat CPU 3 instructions: 470000001 cycles: 117503657 heartbeat IPC: 4 cumulative IPC: 4 (Simulation time: 06 hr 00 min 11 sec)
*** Reached end of trace: (2, "traces/canneal_big2.champsimtrace")
*** Reached end of trace: (7, "traces/canneal_big2.champsimtrace")
Heartbeat CPU 2 instructions: 470000001 cycles: 117503806 heartbeat IPC: 4 cumulative IPC: 4 (Simulation time: 06 hr 00 min 11 sec)
Heartbeat CPU 7 instructions: 470000001 cycles: 117503813 heartbeat IPC: 4 cumulative IPC: 4 (Simulation time: 06 hr 00 min 11 sec)
*** Reached end of trace: (4, "traces/canneal_big4.champsimtrace")
*** Reached end of trace: (3, "traces/canneal_big3.champsimtrace")
*** Reached end of trace: (2, "traces/canneal_big2.champsimtrace")
*** Reached end of trace: (7, "traces/canneal_big2.champsimtrace")
*** Reached end of trace: (0, "traces/canneal_big0.champsimtrace")
Heartbeat CPU 0 instructions: 270000076 cycles: 118900580 heartbeat IPC: 2.2 cumulative IPC: 2.161 (Simulation time: 06 hr 03 min 31 sec)
*** Reached end of trace: (5, "traces/canneal_big0.champsimtrace")
Heartbeat CPU 5 instructions: 270000066 cycles: 118906196 heartbeat IPC: 2.201 cumulative IPC: 2.163 (Simulation time: 06 hr 03 min 32 sec)
*** Reached end of trace: (4, "traces/canneal_big4.champsimtrace")
*** Reached end of trace: (3, "traces/canneal_big3.champsimtrace")
Heartbeat CPU 4 instructions: 480000001 cycles: 120003631 heartbeat IPC: 4 cumulative IPC: 4 (Simulation time: 06 hr 07 min 19 sec)
Heartbeat CPU 3 instructions: 480000001 cycles: 120003657 heartbeat IPC: 4 cumulative IPC: 4 (Simulation time: 06 hr 07 min 19 sec)
*** Reached end of trace: (2, "traces/canneal_big2.champsimtrace")
*** Reached end of trace: (7, "traces/canneal_big2.champsimtrace")
Heartbeat CPU 2 instructions: 480000001 cycles: 120003806 heartbeat IPC: 4 cumulative IPC: 4 (Simulation time: 06 hr 07 min 19 sec)
Heartbeat CPU 7 instructions: 480000001 cycles: 120003813 heartbeat IPC: 4 cumulative IPC: 4 (Simulation time: 06 hr 07 min 19 sec)
*** Reached end of trace: (0, "traces/canneal_big0.champsimtrace")
*** Reached end of trace: (5, "traces/canneal_big0.champsimtrace")
*** Reached end of trace: (4, "traces/canneal_big4.champsimtrace")
*** Reached end of trace: (3, "traces/canneal_big3.champsimtrace")
*** Reached end of trace: (2, "traces/canneal_big2.champsimtrace")
*** Reached end of trace: (7, "traces/canneal_big2.champsimtrace")
*** Reached end of trace: (4, "traces/canneal_big4.champsimtrace")
*** Reached end of trace: (3, "traces/canneal_big3.champsimtrace")
Heartbeat CPU 4 instructions: 490000001 cycles: 122503631 heartbeat IPC: 4 cumulative IPC: 4 (Simulation time: 06 hr 15 min 45 sec)
Heartbeat CPU 3 instructions: 490000001 cycles: 122503657 heartbeat IPC: 4 cumulative IPC: 4 (Simulation time: 06 hr 15 min 45 sec)
*** Reached end of trace: (2, "traces/canneal_big2.champsimtrace")
*** Reached end of trace: (7, "traces/canneal_big2.champsimtrace")
Heartbeat CPU 2 instructions: 490000001 cycles: 122503806 heartbeat IPC: 4 cumulative IPC: 4 (Simulation time: 06 hr 15 min 45 sec)
Heartbeat CPU 7 instructions: 490000001 cycles: 122503813 heartbeat IPC: 4 cumulative IPC: 4 (Simulation time: 06 hr 15 min 45 sec)
*** Reached end of trace: (0, "traces/canneal_big0.champsimtrace")
Heartbeat CPU 0 instructions: 280000079 cycles: 123430119 heartbeat IPC: 2.208 cumulative IPC: 2.164 (Simulation time: 06 hr 19 min 13 sec)
*** Reached end of trace: (5, "traces/canneal_big0.champsimtrace")
Heartbeat CPU 5 instructions: 280000069 cycles: 123438708 heartbeat IPC: 2.206 cumulative IPC: 2.165 (Simulation time: 06 hr 19 min 15 sec)
*** Reached end of trace: (4, "traces/canneal_big4.champsimtrace")
*** Reached end of trace: (3, "traces/canneal_big3.champsimtrace")
*** Reached end of trace: (2, "traces/canneal_big2.champsimtrace")
*** Reached end of trace: (7, "traces/canneal_big2.champsimtrace")
*** Reached end of trace: (1, "traces/canneal_big1.champsimtrace")
*** Reached end of trace: (4, "traces/canneal_big4.champsimtrace")
*** Reached end of trace: (3, "traces/canneal_big3.champsimtrace")
Heartbeat CPU 4 instructions: 500000001 cycles: 125003631 heartbeat IPC: 4 cumulative IPC: 4 (Simulation time: 06 hr 24 min 43 sec)
Heartbeat CPU 3 instructions: 500000001 cycles: 125003657 heartbeat IPC: 4 cumulative IPC: 4 (Simulation time: 06 hr 24 min 43 sec)
*** Reached end of trace: (2, "traces/canneal_big2.champsimtrace")
*** Reached end of trace: (7, "traces/canneal_big2.champsimtrace")
Heartbeat CPU 2 instructions: 500000001 cycles: 125003806 heartbeat IPC: 4 cumulative IPC: 4 (Simulation time: 06 hr 24 min 43 sec)
Heartbeat CPU 7 instructions: 500000001 cycles: 125003813 heartbeat IPC: 4 cumulative IPC: 4 (Simulation time: 06 hr 24 min 43 sec)
*** Reached end of trace: (0, "traces/canneal_big0.champsimtrace")
*** Reached end of trace: (5, "traces/canneal_big0.champsimtrace")
*** Reached end of trace: (4, "traces/canneal_big4.champsimtrace")
*** Reached end of trace: (3, "traces/canneal_big3.champsimtrace")
*** Reached end of trace: (2, "traces/canneal_big2.champsimtrace")
*** Reached end of trace: (7, "traces/canneal_big2.champsimtrace")
*** Reached end of trace: (6, "traces/canneal_big1.champsimtrace")
*** Reached end of trace: (4, "traces/canneal_big4.champsimtrace")
*** Reached end of trace: (3, "traces/canneal_big3.champsimtrace")
Heartbeat CPU 4 instructions: 510000001 cycles: 127503631 heartbeat IPC: 4 cumulative IPC: 4 (Simulation time: 06 hr 31 min 40 sec)
Heartbeat CPU 3 instructions: 510000001 cycles: 127503657 heartbeat IPC: 4 cumulative IPC: 4 (Simulation time: 06 hr 31 min 40 sec)
*** Reached end of trace: (2, "traces/canneal_big2.champsimtrace")
*** Reached end of trace: (7, "traces/canneal_big2.champsimtrace")
Heartbeat CPU 2 instructions: 510000001 cycles: 127503806 heartbeat IPC: 4 cumulative IPC: 4 (Simulation time: 06 hr 31 min 40 sec)
Heartbeat CPU 7 instructions: 510000001 cycles: 127503813 heartbeat IPC: 4 cumulative IPC: 4 (Simulation time: 06 hr 31 min 40 sec)
*** Reached end of trace: (0, "traces/canneal_big0.champsimtrace")
Heartbeat CPU 0 instructions: 290000082 cycles: 127935745 heartbeat IPC: 2.219 cumulative IPC: 2.166 (Simulation time: 06 hr 32 min 41 sec)
*** Reached end of trace: (5, "traces/canneal_big0.champsimtrace")
Heartbeat CPU 5 instructions: 290000072 cycles: 127938654 heartbeat IPC: 2.222 cumulative IPC: 2.168 (Simulation time: 06 hr 32 min 42 sec)
*** Reached end of trace: (4, "traces/canneal_big4.champsimtrace")
*** Reached end of trace: (3, "traces/canneal_big3.champsimtrace")
*** Reached end of trace: (2, "traces/canneal_big2.champsimtrace")
*** Reached end of trace: (7, "traces/canneal_big2.champsimtrace")
*** Reached end of trace: (4, "traces/canneal_big4.champsimtrace")
*** Reached end of trace: (3, "traces/canneal_big3.champsimtrace")
Heartbeat CPU 4 instructions: 520000001 cycles: 130003631 heartbeat IPC: 4 cumulative IPC: 4 (Simulation time: 06 hr 39 min 00 sec)
Heartbeat CPU 3 instructions: 520000001 cycles: 130003657 heartbeat IPC: 4 cumulative IPC: 4 (Simulation time: 06 hr 39 min 00 sec)
*** Reached end of trace: (2, "traces/canneal_big2.champsimtrace")
*** Reached end of trace: (7, "traces/canneal_big2.champsimtrace")
Heartbeat CPU 2 instructions: 520000001 cycles: 130003806 heartbeat IPC: 4 cumulative IPC: 4 (Simulation time: 06 hr 39 min 00 sec)
Heartbeat CPU 7 instructions: 520000001 cycles: 130003813 heartbeat IPC: 4 cumulative IPC: 4 (Simulation time: 06 hr 39 min 00 sec)
*** Reached end of trace: (0, "traces/canneal_big0.champsimtrace")
*** Reached end of trace: (5, "traces/canneal_big0.champsimtrace")
*** Reached end of trace: (4, "traces/canneal_big4.champsimtrace")
*** Reached end of trace: (3, "traces/canneal_big3.champsimtrace")
*** Reached end of trace: (2, "traces/canneal_big2.champsimtrace")
*** Reached end of trace: (7, "traces/canneal_big2.champsimtrace")
*** Reached end of trace: (0, "traces/canneal_big0.champsimtrace")
Heartbeat CPU 0 instructions: 300000085 cycles: 132424305 heartbeat IPC: 2.228 cumulative IPC: 2.169 (Simulation time: 06 hr 47 min 46 sec)
*** Reached end of trace: (5, "traces/canneal_big0.champsimtrace")
Heartbeat CPU 5 instructions: 300000075 cycles: 132427300 heartbeat IPC: 2.228 cumulative IPC: 2.17 (Simulation time: 06 hr 47 min 47 sec)
*** Reached end of trace: (4, "traces/canneal_big4.champsimtrace")
*** Reached end of trace: (3, "traces/canneal_big3.champsimtrace")
Heartbeat CPU 4 instructions: 530000001 cycles: 132503631 heartbeat IPC: 4 cumulative IPC: 4 (Simulation time: 06 hr 48 min 05 sec)
Heartbeat CPU 3 instructions: 530000001 cycles: 132503657 heartbeat IPC: 4 cumulative IPC: 4 (Simulation time: 06 hr 48 min 05 sec)
*** Reached end of trace: (2, "traces/canneal_big2.champsimtrace")
*** Reached end of trace: (7, "traces/canneal_big2.champsimtrace")
Heartbeat CPU 2 instructions: 530000001 cycles: 132503806 heartbeat IPC: 4 cumulative IPC: 4 (Simulation time: 06 hr 48 min 05 sec)
Heartbeat CPU 7 instructions: 530000001 cycles: 132503813 heartbeat IPC: 4 cumulative IPC: 4 (Simulation time: 06 hr 48 min 05 sec)
*** Reached end of trace: (4, "traces/canneal_big4.champsimtrace")
*** Reached end of trace: (3, "traces/canneal_big3.champsimtrace")
*** Reached end of trace: (2, "traces/canneal_big2.champsimtrace")
*** Reached end of trace: (7, "traces/canneal_big2.champsimtrace")
[...]
cpu5->cpu5_DTLB PREFETCH REQUESTED:          0 ISSUED:          0 USEFUL:          0 USELESS:          0
cpu5->cpu5_DTLB AVERAGE MISS LATENCY: 4.006 cycles
cpu5_DTLB COHERENCE INVALIDATIONS:          0
cpu5_DTLB COHERENCE WRITE-HIT OTHER-SHARER EVENTS:          0
cpu4_STLB COHERENCE INVALIDATIONS:          0
cpu4_STLB COHERENCE WRITE-HIT OTHER-SHARER EVENTS:          0
cpu4_L2C COHERENCE INVALIDATIONS:          0
cpu4_L2C COHERENCE WRITE-HIT OTHER-SHARER EVENTS:          0
cpu4->cpu4_L1I TOTAL        ACCESS:  211444803 HIT:  211444803 MISS:          0 MSHR_MERGE:          0
cpu4->cpu4_L1I LOAD         ACCESS:  211444803 HIT:  211444803 MISS:          0 MSHR_MERGE:          0
cpu4->cpu4_L1I RFO          ACCESS:          0 HIT:          0 MISS:          0 MSHR_MERGE:          0
cpu4->cpu4_L1I PREFETCH     ACCESS:          0 HIT:          0 MISS:          0 MSHR_MERGE:          0
cpu4->cpu4_L1I WRITE        ACCESS:          0 HIT:          0 MISS:          0 MSHR_MERGE:          0
cpu4->cpu4_L1I TRANSLATION  ACCESS:          0 HIT:          0 MISS:          0 MSHR_MERGE:          0
cpu4->cpu4_L1I PREFETCH REQUESTED:          0 ISSUED:          0 USEFUL:          0 USELESS:          0
cpu4->cpu4_L1I AVERAGE MISS LATENCY: - cycles
cpu4_L1I COHERENCE INVALIDATIONS:          0
cpu4_L1I COHERENCE WRITE-HIT OTHER-SHARER EVENTS:          0
cpu4_L1D COHERENCE INVALIDATIONS:          0
cpu4_L1D COHERENCE WRITE-HIT OTHER-SHARER EVENTS:          0
cpu4->cpu4_ITLB TOTAL        ACCESS:  175845455 HIT:  175845455 MISS:          0 MSHR_MERGE:          0
cpu4->cpu4_ITLB LOAD         ACCESS:  175845455 HIT:  175845455 MISS:          0 MSHR_MERGE:          0
cpu4->cpu4_ITLB RFO          ACCESS:          0 HIT:          0 MISS:          0 MSHR_MERGE:          0
cpu4->cpu4_ITLB PREFETCH     ACCESS:          0 HIT:          0 MISS:          0 MSHR_MERGE:          0
cpu4->cpu4_ITLB WRITE        ACCESS:          0 HIT:          0 MISS:          0 MSHR_MERGE:          0
cpu4->cpu4_ITLB TRANSLATION  ACCESS:          0 HIT:          0 MISS:          0 MSHR_MERGE:          0
cpu4->cpu4_ITLB PREFETCH REQUESTED:          0 ISSUED:          0 USEFUL:          0 USELESS:          0
cpu4->cpu4_ITLB AVERAGE MISS LATENCY: - cycles
cpu4_ITLB COHERENCE INVALIDATIONS:          0
cpu4_ITLB COHERENCE WRITE-HIT OTHER-SHARER EVENTS:          0
cpu4_DTLB COHERENCE INVALIDATIONS:          0
cpu4_DTLB COHERENCE WRITE-HIT OTHER-SHARER EVENTS:          0
cpu3_STLB COHERENCE INVALIDATIONS:          0
cpu3_STLB COHERENCE WRITE-HIT OTHER-SHARER EVENTS:          0
cpu3_L2C COHERENCE INVALIDATIONS:          0
cpu3_L2C COHERENCE WRITE-HIT OTHER-SHARER EVENTS:          0
cpu3->cpu3_L1I TOTAL        ACCESS:  226222145 HIT:  226222145 MISS:          0 MSHR_MERGE:          0
cpu3->cpu3_L1I LOAD         ACCESS:  226222145 HIT:  226222145 MISS:          0 MSHR_MERGE:          0
cpu3->cpu3_L1I RFO          ACCESS:          0 HIT:          0 MISS:          0 MSHR_MERGE:          0
cpu3->cpu3_L1I PREFETCH     ACCESS:          0 HIT:          0 MISS:          0 MSHR_MERGE:          0
cpu3->cpu3_L1I WRITE        ACCESS:          0 HIT:          0 MISS:          0 MSHR_MERGE:          0
cpu3->cpu3_L1I TRANSLATION  ACCESS:          0 HIT:          0 MISS:          0 MSHR_MERGE:          0
cpu3->cpu3_L1I PREFETCH REQUESTED:          0 ISSUED:          0 USEFUL:          0 USELESS:          0
cpu3->cpu3_L1I AVERAGE MISS LATENCY: - cycles
cpu3_L1I COHERENCE INVALIDATIONS:          0
cpu3_L1I COHERENCE WRITE-HIT OTHER-SHARER EVENTS:          0
cpu3_L1D COHERENCE INVALIDATIONS:          0
cpu3_L1D COHERENCE WRITE-HIT OTHER-SHARER EVENTS:          0
cpu3->cpu3_ITLB TOTAL        ACCESS:  188811914 HIT:  188811914 MISS:          0 MSHR_MERGE:          0
cpu3->cpu3_ITLB LOAD         ACCESS:  188811914 HIT:  188811914 MISS:          0 MSHR_MERGE:          0
cpu3->cpu3_ITLB RFO          ACCESS:          0 HIT:          0 MISS:          0 MSHR_MERGE:          0
cpu3->cpu3_ITLB PREFETCH     ACCESS:          0 HIT:          0 MISS:          0 MSHR_MERGE:          0
cpu3->cpu3_ITLB WRITE        ACCESS:          0 HIT:          0 MISS:          0 MSHR_MERGE:          0
cpu3->cpu3_ITLB TRANSLATION  ACCESS:          0 HIT:          0 MISS:          0 MSHR_MERGE:          0
cpu3->cpu3_ITLB PREFETCH REQUESTED:          0 ISSUED:          0 USEFUL:          0 USELESS:          0
cpu3->cpu3_ITLB AVERAGE MISS LATENCY: - cycles
cpu3_ITLB COHERENCE INVALIDATIONS:          0
cpu3_ITLB COHERENCE WRITE-HIT OTHER-SHARER EVENTS:          0
cpu3_DTLB COHERENCE INVALIDATIONS:          0
cpu3_DTLB COHERENCE WRITE-HIT OTHER-SHARER EVENTS:          0
cpu2_STLB COHERENCE INVALIDATIONS:          0
cpu2_STLB COHERENCE WRITE-HIT OTHER-SHARER EVENTS:          0
cpu2_L2C COHERENCE INVALIDATIONS:          0
cpu2_L2C COHERENCE WRITE-HIT OTHER-SHARER EVENTS:          0
cpu2->cpu2_L1I TOTAL        ACCESS:  208275612 HIT:  208275612 MISS:          0 MSHR_MERGE:          0
cpu2->cpu2_L1I LOAD         ACCESS:  208275612 HIT:  208275612 MISS:          0 MSHR_MERGE:          0
cpu2->cpu2_L1I RFO          ACCESS:          0 HIT:          0 MISS:          0 MSHR_MERGE:          0
cpu2->cpu2_L1I PREFETCH     ACCESS:          0 HIT:          0 MISS:          0 MSHR_MERGE:          0
cpu2->cpu2_L1I WRITE        ACCESS:          0 HIT:          0 MISS:          0 MSHR_MERGE:          0
cpu2->cpu2_L1I TRANSLATION  ACCESS:          0 HIT:          0 MISS:          0 MSHR_MERGE:          0
cpu2->cpu2_L1I PREFETCH REQUESTED:          0 ISSUED:          0 USEFUL:          0 USELESS:          0
cpu2->cpu2_L1I AVERAGE MISS LATENCY: - cycles
cpu2_L1I COHERENCE INVALIDATIONS:          0
cpu2_L1I COHERENCE WRITE-HIT OTHER-SHARER EVENTS:          0
cpu2_L1D COHERENCE INVALIDATIONS:          0
cpu2_L1D COHERENCE WRITE-HIT OTHER-SHARER EVENTS:          0
cpu2->cpu2_ITLB TOTAL        ACCESS:  181109152 HIT:  181109152 MISS:          0 MSHR_MERGE:          0
cpu2->cpu2_ITLB LOAD         ACCESS:  181109152 HIT:  181109152 MISS:          0 MSHR_MERGE:          0
cpu2->cpu2_ITLB RFO          ACCESS:          0 HIT:          0 MISS:          0 MSHR_MERGE:          0
cpu2->cpu2_ITLB PREFETCH     ACCESS:          0 HIT:          0 MISS:          0 MSHR_MERGE:          0
cpu2->cpu2_ITLB WRITE        ACCESS:          0 HIT:          0 MISS:          0 MSHR_MERGE:          0
cpu2->cpu2_ITLB TRANSLATION  ACCESS:          0 HIT:          0 MISS:          0 MSHR_MERGE:          0
cpu2->cpu2_ITLB PREFETCH REQUESTED:          0 ISSUED:          0 USEFUL:          0 USELESS:          0
cpu2->cpu2_ITLB AVERAGE MISS LATENCY: - cycles
cpu2_ITLB COHERENCE INVALIDATIONS:          0
cpu2_ITLB COHERENCE WRITE-HIT OTHER-SHARER EVENTS:          0
cpu2_DTLB COHERENCE INVALIDATIONS:          0
cpu2_DTLB COHERENCE WRITE-HIT OTHER-SHARER EVENTS:          0
cpu1->cpu1_STLB TOTAL        ACCESS:    2230251 HIT:    2033126 MISS:     197125 MSHR_MERGE:          0
cpu1->cpu1_STLB LOAD         ACCESS:    2230251 HIT:    2033126 MISS:     197125 MSHR_MERGE:          0
cpu1->cpu1_STLB RFO          ACCESS:          0 HIT:          0 MISS:          0 MSHR_MERGE:          0
cpu1->cpu1_STLB PREFETCH     ACCESS:          0 HIT:          0 MISS:          0 MSHR_MERGE:          0
cpu1->cpu1_STLB WRITE        ACCESS:          0 HIT:          0 MISS:          0 MSHR_MERGE:          0
cpu1->cpu1_STLB TRANSLATION  ACCESS:          0 HIT:          0 MISS:          0 MSHR_MERGE:          0
cpu1->cpu1_STLB PREFETCH REQUESTED:          0 ISSUED:          0 USEFUL:          0 USELESS:          0
cpu1->cpu1_STLB AVERAGE MISS LATENCY: 563.1 cycles
cpu1_STLB COHERENCE INVALIDATIONS:          0
cpu1_STLB COHERENCE WRITE-HIT OTHER-SHARER EVENTS:          0
cpu1->cpu1_L2C TOTAL        ACCESS:    2362921 HIT:     417837 MISS:    1945084 MSHR_MERGE:          0
cpu1->cpu1_L2C LOAD         ACCESS:    1972315 HIT:     416711 MISS:    1555604 MSHR_MERGE:          0
cpu1->cpu1_L2C RFO          ACCESS:          0 HIT:          0 MISS:          0 MSHR_MERGE:          0
cpu1->cpu1_L2C PREFETCH     ACCESS:          0 HIT:          0 MISS:          0 MSHR_MERGE:          0
cpu1->cpu1_L2C WRITE        ACCESS:          0 HIT:          0 MISS:          0 MSHR_MERGE:          0
cpu1->cpu1_L2C TRANSLATION  ACCESS:     390606 HIT:       1126 MISS:     389480 MSHR_MERGE:          0
cpu1->cpu1_L2C PREFETCH REQUESTED:          0 ISSUED:          0 USEFUL:          0 USELESS:          0
cpu1->cpu1_L2C AVERAGE MISS LATENCY: 272 cycles
cpu1_L2C COHERENCE INVALIDATIONS:          0
cpu1_L2C COHERENCE WRITE-HIT OTHER-SHARER EVENTS:          0
cpu1->cpu1_L1I TOTAL        ACCESS:   33514395 HIT:   31374321 MISS:    2140074 MSHR_MERGE:     167759
cpu1->cpu1_L1I LOAD         ACCESS:   33514395 HIT:   31374321 MISS:    2140074 MSHR_MERGE:     167759
cpu1->cpu1_L1I RFO          ACCESS:          0 HIT:          0 MISS:          0 MSHR_MERGE:          0
cpu1->cpu1_L1I PREFETCH     ACCESS:          0 HIT:          0 MISS:          0 MSHR_MERGE:          0
cpu1->cpu1_L1I WRITE        ACCESS:          0 HIT:          0 MISS:          0 MSHR_MERGE:          0
cpu1->cpu1_L1I TRANSLATION  ACCESS:          0 HIT:          0 MISS:          0 MSHR_MERGE:          0
cpu1->cpu1_L1I PREFETCH REQUESTED:          0 ISSUED:          0 USEFUL:          0 USELESS:          0
cpu1->cpu1_L1I AVERAGE MISS LATENCY: 222.6 cycles
cpu1_L1I COHERENCE INVALIDATIONS:          0
cpu1_L1I COHERENCE WRITE-HIT OTHER-SHARER EVENTS:          0
cpu1->cpu1_L1D TOTAL        ACCESS:     394377 HIT:       3771 MISS:     390606 MSHR_MERGE:          0
cpu1->cpu1_L1D LOAD         ACCESS:          0 HIT:          0 MISS:          0 MSHR_MERGE:          0
cpu1->cpu1_L1D RFO          ACCESS:          0 HIT:          0 MISS:          0 MSHR_MERGE:          0
cpu1->cpu1_L1D PREFETCH     ACCESS:          0 HIT:          0 MISS:          0 MSHR_MERGE:          0
cpu1->cpu1_L1D WRITE        ACCESS:          0 HIT:          0 MISS:          0 MSHR_MERGE:          0
cpu1->cpu1_L1D TRANSLATION  ACCESS:     394377 HIT:       3771 MISS:     390606 MSHR_MERGE:          0
cpu1->cpu1_L1D PREFETCH REQUESTED:          0 ISSUED:          0 USEFUL:          0 USELESS:          0
cpu1->cpu1_L1D AVERAGE MISS LATENCY: 278.1 cycles
cpu1_L1D COHERENCE INVALIDATIONS:          0
cpu1_L1D COHERENCE WRITE-HIT OTHER-SHARER EVENTS:          0
cpu1->cpu1_ITLB TOTAL        ACCESS:   32989747 HIT:   30708235 MISS:    2281512 MSHR_MERGE:      51261
cpu1->cpu1_ITLB LOAD         ACCESS:   32989747 HIT:   30708235 MISS:    2281512 MSHR_MERGE:      51261
cpu1->cpu1_ITLB RFO          ACCESS:          0 HIT:          0 MISS:          0 MSHR_MERGE:          0
cpu1->cpu1_ITLB PREFETCH     ACCESS:          0 HIT:          0 MISS:          0 MSHR_MERGE:          0
cpu1->cpu1_ITLB WRITE        ACCESS:          0 HIT:          0 MISS:          0 MSHR_MERGE:          0
cpu1->cpu1_ITLB TRANSLATION  ACCESS:          0 HIT:          0 MISS:          0 MSHR_MERGE:          0
cpu1->cpu1_ITLB PREFETCH REQUESTED:          0 ISSUED:          0 USEFUL:          0 USELESS:          0
cpu1->cpu1_ITLB AVERAGE MISS LATENCY: 53.86 cycles
cpu1_ITLB COHERENCE INVALIDATIONS:          0
cpu1_ITLB COHERENCE WRITE-HIT OTHER-SHARER EVENTS:          0
cpu1_DTLB COHERENCE INVALIDATIONS:          0
cpu1_DTLB COHERENCE WRITE-HIT OTHER-SHARER EVENTS:          0
cpu0->cpu0_STLB TOTAL        ACCESS:     332109 HIT:     332109 MISS:          0 MSHR_MERGE:          0
cpu0->cpu0_STLB LOAD         ACCESS:     332109 HIT:     332109 MISS:          0 MSHR_MERGE:          0
cpu0->cpu0_STLB RFO          ACCESS:          0 HIT:          0 MISS:          0 MSHR_MERGE:          0
cpu0->cpu0_STLB PREFETCH     ACCESS:          0 HIT:          0 MISS:          0 MSHR_MERGE:          0
cpu0->cpu0_STLB WRITE        ACCESS:          0 HIT:          0 MISS:          0 MSHR_MERGE:          0
cpu0->cpu0_STLB TRANSLATION  ACCESS:          0 HIT:          0 MISS:          0 MSHR_MERGE:          0
cpu0->cpu0_STLB PREFETCH REQUESTED:          0 ISSUED:          0 USEFUL:          0 USELESS:          0
cpu0->cpu0_STLB AVERAGE MISS LATENCY: - cycles
cpu0_STLB COHERENCE INVALIDATIONS:          0
cpu0_STLB COHERENCE WRITE-HIT OTHER-SHARER EVENTS:          0
cpu0->cpu0_L2C TOTAL        ACCESS:   10637674 HIT:    5158530 MISS:    5479144 MSHR_MERGE:          0
cpu0->cpu0_L2C LOAD         ACCESS:    1678939 HIT:     566277 MISS:    1112662 MSHR_MERGE:          0
cpu0->cpu0_L2C RFO          ACCESS:    4445303 HIT:      78821 MISS:    4366482 MSHR_MERGE:          0
cpu0->cpu0_L2C PREFETCH     ACCESS:          0 HIT:          0 MISS:          0 MSHR_MERGE:          0
cpu0->cpu0_L2C WRITE        ACCESS:    4513432 HIT:    4513432 MISS:          0 MSHR_MERGE:          0
cpu0->cpu0_L2C TRANSLATION  ACCESS:          0 HIT:          0 MISS:          0 MSHR_MERGE:          0
cpu0->cpu0_L2C PREFETCH REQUESTED:          0 ISSUED:          0 USEFUL:          0 USELESS:          0
cpu0->cpu0_L2C AVERAGE MISS LATENCY: 188 cycles
cpu0_L2C COHERENCE INVALIDATIONS:          0
cpu0_L2C COHERENCE WRITE-HIT OTHER-SHARER EVENTS:          0
cpu0->cpu0_L1I TOTAL        ACCESS:  149125430 HIT:  148797112 MISS:     328318 MSHR_MERGE:      88075
cpu0->cpu0_L1I LOAD         ACCESS:  149125430 HIT:  148797112 MISS:     328318 MSHR_MERGE:      88075
cpu0->cpu0_L1I RFO          ACCESS:          0 HIT:          0 MISS:          0 MSHR_MERGE:          0
cpu0->cpu0_L1I PREFETCH     ACCESS:          0 HIT:          0 MISS:          0 MSHR_MERGE:          0
cpu0->cpu0_L1I WRITE        ACCESS:          0 HIT:          0 MISS:          0 MSHR_MERGE:          0
cpu0->cpu0_L1I TRANSLATION  ACCESS:          0 HIT:          0 MISS:          0 MSHR_MERGE:          0
cpu0->cpu0_L1I PREFETCH REQUESTED:          0 ISSUED:          0 USEFUL:          0 USELESS:          0
cpu0->cpu0_L1I AVERAGE MISS LATENCY: 306.5 cycles
cpu0_L1I COHERENCE INVALIDATIONS:          0
cpu0_L1I COHERENCE WRITE-HIT OTHER-SHARER EVENTS:          0
cpu0->cpu0_L1D TOTAL        ACCESS:  177394939 HIT:  152355764 MISS:   25039175 MSHR_MERGE:   19150019
cpu0->cpu0_L1D LOAD         ACCESS:   17209490 HIT:   15017972 MISS:    2191518 MSHR_MERGE:     752822
cpu0->cpu0_L1D RFO          ACCESS:          0 HIT:          0 MISS:          0 MSHR_MERGE:          0
cpu0->cpu0_L1D PREFETCH     ACCESS:          0 HIT:          0 MISS:          0 MSHR_MERGE:          0
cpu0->cpu0_L1D WRITE        ACCESS:  160185449 HIT:  137337792 MISS:   22847657 MSHR_MERGE:   18397197
cpu0->cpu0_L1D TRANSLATION  ACCESS:          0 HIT:          0 MISS:          0 MSHR_MERGE:          0
cpu0->cpu0_L1D PREFETCH REQUESTED:          0 ISSUED:          0 USEFUL:          0 USELESS:          0
cpu0->cpu0_L1D AVERAGE MISS LATENCY: 170.6 cycles
cpu0_L1D COHERENCE INVALIDATIONS:          0
cpu0_L1D COHERENCE WRITE-HIT OTHER-SHARER EVENTS:          0
cpu0->cpu0_ITLB TOTAL        ACCESS:  124163604 HIT:  124113631 MISS:      49973 MSHR_MERGE:      19704
cpu0->cpu0_ITLB LOAD         ACCESS:  124163604 HIT:  124113631 MISS:      49973 MSHR_MERGE:      19704
cpu0->cpu0_ITLB RFO          ACCESS:          0 HIT:          0 MISS:          0 MSHR_MERGE:          0
cpu0->cpu0_ITLB PREFETCH     ACCESS:          0 HIT:          0 MISS:          0 MSHR_MERGE:          0
cpu0->cpu0_ITLB WRITE        ACCESS:          0 HIT:          0 MISS:          0 MSHR_MERGE:          0
cpu0->cpu0_ITLB TRANSLATION  ACCESS:          0 HIT:          0 MISS:          0 MSHR_MERGE:          0
cpu0->cpu0_ITLB PREFETCH REQUESTED:          0 ISSUED:          0 USEFUL:          0 USELESS:          0
cpu0->cpu0_ITLB AVERAGE MISS LATENCY: 4.005 cycles
cpu0_ITLB COHERENCE INVALIDATIONS:          0
cpu0_ITLB COHERENCE WRITE-HIT OTHER-SHARER EVENTS:          0
cpu0->cpu0_DTLB TOTAL        ACCESS:  147661988 HIT:  147274790 MISS:     387198 MSHR_MERGE:      85358
cpu0->cpu0_DTLB LOAD         ACCESS:  147661988 HIT:  147274790 MISS:     387198 MSHR_MERGE:      85358
cpu0->cpu0_DTLB RFO          ACCESS:          0 HIT:          0 MISS:          0 MSHR_MERGE:          0
cpu0->cpu0_DTLB PREFETCH     ACCESS:          0 HIT:          0 MISS:          0 MSHR_MERGE:          0
cpu0->cpu0_DTLB WRITE        ACCESS:          0 HIT:          0 MISS:          0 MSHR_MERGE:          0
cpu0->cpu0_DTLB TRANSLATION  ACCESS:          0 HIT:          0 MISS:          0 MSHR_MERGE:          0
cpu0->cpu0_DTLB PREFETCH REQUESTED:          0 ISSUED:          0 USEFUL:          0 USELESS:          0
cpu0->cpu0_DTLB AVERAGE MISS LATENCY: 4 cycles
cpu0_DTLB COHERENCE INVALIDATIONS:          0
cpu0_DTLB COHERENCE WRITE-HIT OTHER-SHARER EVENTS:          0
cpu0->LLC TOTAL        ACCESS:    9895147 HIT:    3949267 MISS:    5945880 MSHR_MERGE:     160510
cpu0->LLC LOAD         ACCESS:    1112662 HIT:     540795 MISS:     571867 MSHR_MERGE:     122413
cpu0->LLC RFO          ACCESS:    4366482 HIT:    2197200 MISS:    2169282 MSHR_MERGE:      38097
cpu0->LLC PREFETCH     ACCESS:          0 HIT:          0 MISS:          0 MSHR_MERGE:          0
cpu0->LLC WRITE        ACCESS:    4416003 HIT:    1211272 MISS:    3204731 MSHR_MERGE:          0
cpu0->LLC TRANSLATION  ACCESS:          0 HIT:          0 MISS:          0 MSHR_MERGE:          0
cpu0->LLC PREFETCH REQUESTED:          0 ISSUED:          0 USEFUL:          0 USELESS:          0
cpu0->LLC AVERAGE MISS LATENCY: 446.5 cycles
cpu1->LLC TOTAL        ACCESS:    1945084 HIT:     464070 MISS:    1481014 MSHR_MERGE:         26
cpu1->LLC LOAD         ACCESS:    1555604 HIT:     377500 MISS:    1178104 MSHR_MERGE:         26
cpu1->LLC RFO          ACCESS:          0 HIT:          0 MISS:          0 MSHR_MERGE:          0
cpu1->LLC PREFETCH     ACCESS:          0 HIT:          0 MISS:          0 MSHR_MERGE:          0
cpu1->LLC WRITE        ACCESS:          0 HIT:          0 MISS:          0 MSHR_MERGE:          0
cpu1->LLC TRANSLATION  ACCESS:     389480 HIT:      86570 MISS:     302910 MSHR_MERGE:          0
cpu1->LLC PREFETCH REQUESTED:          0 ISSUED:          0 USEFUL:          0 USELESS:          0
cpu1->LLC AVERAGE MISS LATENCY: 1447 cycles
cpu5->LLC TOTAL        ACCESS:    9896900 HIT:    6572067 MISS:    3324833 MSHR_MERGE:    1144939
cpu5->LLC LOAD         ACCESS:    1112698 HIT:     546255 MISS:     566443 MSHR_MERGE:     439094
cpu5->LLC RFO          ACCESS:    4367410 HIT:    3219024 MISS:    1148386 MSHR_MERGE:     705845
cpu5->LLC PREFETCH     ACCESS:          0 HIT:          0 MISS:          0 MSHR_MERGE:          0
cpu5->LLC WRITE        ACCESS:    4416792 HIT:    2806788 MISS:    1610004 MSHR_MERGE:          0
cpu5->LLC TRANSLATION  ACCESS:          0 HIT:          0 MISS:          0 MSHR_MERGE:          0
cpu5->LLC PREFETCH REQUESTED:          0 ISSUED:          0 USEFUL:          0 USELESS:          0
cpu5->LLC AVERAGE MISS LATENCY: 677.4 cycles
cpu6->LLC TOTAL        ACCESS:    1937517 HIT:     458635 MISS:    1478882 MSHR_MERGE:         21
cpu6->LLC LOAD         ACCESS:    1549848 HIT:     373005 MISS:    1176843 MSHR_MERGE:         21
cpu6->LLC RFO          ACCESS:          0 HIT:          0 MISS:          0 MSHR_MERGE:          0
cpu6->LLC PREFETCH     ACCESS:          0 HIT:          0 MISS:          0 MSHR_MERGE:          0
cpu6->LLC WRITE        ACCESS:          0 HIT:          0 MISS:          0 MSHR_MERGE:          0
cpu6->LLC TRANSLATION  ACCESS:     387669 HIT:      85630 MISS:     302039 MSHR_MERGE:          0
cpu6->LLC PREFETCH REQUESTED:          0 ISSUED:          0 USEFUL:          0 USELESS:          0
cpu6->LLC AVERAGE MISS LATENCY: 1449 cycles
LLC COHERENCE INVALIDATIONS:    4008526
LLC COHERENCE WRITE-HIT OTHER-SHARER EVENTS:    3990043

DRAM Statistics

Channel 0 RQ ROW_BUFFER_HIT:     231758
  ROW_BUFFER_MISS:    5876755
  AVG DBUS CONGESTED CYCLE: 7.39
Channel 0 WQ ROW_BUFFER_HIT:     979875
  ROW_BUFFER_MISS:    4218643
  FULL:     238551
Channel 0 REFRESHES ISSUED:      32827

VMEM ALIASED FILLS (cross-CPU shared-page hits): 304483
