[VMEM] WARNING: physical memory size is smaller than virtual memory size.

*** ChampSim Multicore Out-of-Order Simulator ***
Warmup Instructions: 50000000
Simulation Instructions: 100000000
Number of CPUs: 8
Page size: 4096

Off-chip DRAM Size: 16 GiB Channels: 1 Width: 64-bit Data Rate: 3205 MT/s
*** Reached end of trace: (4, "traces/canneal_big4.champsimtrace")
*** Reached end of trace: (3, "traces/canneal_big3.champsimtrace")
*** Reached end of trace: (2, "traces/canneal_big2.champsimtrace")
*** Reached end of trace: (7, "traces/canneal_big2.champsimtrace")
*** Reached end of trace: (0, "traces/canneal_big0.champsimtrace")
*** Reached end of trace: (5, "traces/canneal_big0.champsimtrace")
*** Reached end of trace: (4, "traces/canneal_big4.champsimtrace")
*** Reached end of trace: (3, "traces/canneal_big3.champsimtrace")
Heartbeat CPU 4 instructions: 10000001 cycles: 2503631 heartbeat IPC: 3.994 cumulative IPC: 3.994 (Simulation time: 00 hr 07 min 09 sec)
Heartbeat CPU 3 instructions: 10000001 cycles: 2503657 heartbeat IPC: 3.994 cumulative IPC: 3.994 (Simulation time: 00 hr 07 min 09 sec)
*** Reached end of trace: (2, "traces/canneal_big2.champsimtrace")
*** Reached end of trace: (7, "traces/canneal_big2.champsimtrace")
Heartbeat CPU 2 instructions: 10000001 cycles: 2503806 heartbeat IPC: 3.994 cumulative IPC: 3.994 (Simulation time: 00 hr 07 min 09 sec)
Heartbeat CPU 7 instructions: 10000001 cycles: 2503813 heartbeat IPC: 3.994 cumulative IPC: 3.994 (Simulation time: 00 hr 07 min 09 sec)
*** Reached end of trace: (4, "traces/canneal_big4.champsimtrace")
*** Reached end of trace: (3, "traces/canneal_big3.champsimtrace")
*** Reached end of trace: (2, "traces/canneal_big2.champsimtrace")
*** Reached end of trace: (7, "traces/canneal_big2.champsimtrace")
*** Reached end of trace: (0, "traces/canneal_big0.champsimtrace")
Heartbeat CPU 0 instructions: 10000003 cycles: 3989036 heartbeat IPC: 2.507 cumulative IPC: 2.507 (Simulation time: 00 hr 10 min 44 sec)
*** Reached end of trace: (5, "traces/canneal_big0.champsimtrace")
Heartbeat CPU 5 instructions: 10000003 cycles: 3993592 heartbeat IPC: 2.504 cumulative IPC: 2.504 (Simulation time: 00 hr 10 min 45 sec)
*** Reached end of trace: (6, "traces/canneal_big1.champsimtrace")
*** Reached end of trace: (1, "traces/canneal_big1.champsimtrace")
*** Reached end of trace: (4, "traces/canneal_big4.champsimtrace")
*** Reached end of trace: (3, "traces/canneal_big3.champsimtrace")
Heartbeat CPU 4 instructions: 20000001 cycles: 5003631 heartbeat IPC: 4 cumulative IPC: 3.997 (Simulation time: 00 hr 13 min 11 sec)
Heartbeat CPU 3 instructions: 20000001 cycles: 5003657 heartbeat IPC: 4 cumulative IPC: 3.997 (Simulation time: 00 hr 13 min 11 sec)
*** Reached end of trace: (2, "traces/canneal_big2.champsimtrace")
*** Reached end of trace: (7, "traces/canneal_big2.champsimtrace")
Heartbeat CPU 2 instructions: 20000001 cycles: 5003806 heartbeat IPC: 4 cumulative IPC: 3.997 (Simulation time: 00 hr 13 min 11 sec)
Heartbeat CPU 7 instructions: 20000001 cycles: 5003813 heartbeat IPC: 4 cumulative IPC: 3.997 (Simulation time: 00 hr 13 min 11 sec)
*** Reached end of trace: (0, "traces/canneal_big0.champsimtrace")
*** Reached end of trace: (5, "traces/canneal_big0.champsimtrace")
*** Reached end of trace: (4, "traces/canneal_big4.champsimtrace")
*** Reached end of trace: (3, "traces/canneal_big3.champsimtrace")
*** Reached end of trace: (2, "traces/canneal_big2.champsimtrace")
*** Reached end of trace: (7, "traces/canneal_big2.champsimtrace")
*** Reached end of trace: (1, "traces/canneal_big1.champsimtrace")
Heartbeat CPU 1 instructions: 10000002 cycles: 7297854 heartbeat IPC: 1.37 cumulative IPC: 1.37 (Simulation time: 00 hr 20 min 00 sec)
*** Reached end of trace: (6, "traces/canneal_big1.champsimtrace")
Heartbeat CPU 6 instructions: 10000002 cycles: 7308421 heartbeat IPC: 1.368 cumulative IPC: 1.368 (Simulation time: 00 hr 20 min 02 sec)
*** Reached end of trace: (4, "traces/canneal_big4.champsimtrace")
*** Reached end of trace: (3, "traces/canneal_big3.champsimtrace")
Heartbeat CPU 4 instructions: 30000001 cycles: 7503631 heartbeat IPC: 4 cumulative IPC: 3.998 (Simulation time: 00 hr 20 min 43 sec)
Heartbeat CPU 3 instructions: 30000001 cycles: 7503657 heartbeat IPC: 4 cumulative IPC: 3.998 (Simulation time: 00 hr 20 min 43 sec)
*** Reached end of trace: (2, "traces/canneal_big2.champsimtrace")
*** Reached end of trace: (7, "traces/canneal_big2.champsimtrace")
Heartbeat CPU 2 instructions: 30000001 cycles: 7503806 heartbeat IPC: 4 cumulative IPC: 3.998 (Simulation time: 00 hr 20 min 44 sec)
Heartbeat CPU 7 instructions: 30000001 cycles: 7503813 heartbeat IPC: 4 cumulative IPC: 3.998 (Simulation time: 00 hr 20 min 44 sec)
*** Reached end of trace: (0, "traces/canneal_big0.champsimtrace")
Heartbeat CPU 0 instructions: 20000006 cycles: 7835470 heartbeat IPC: 2.6 cumulative IPC: 2.552 (Simulation time: 00 hr 21 min 57 sec)
*** Reached end of trace: (5, "traces/canneal_big0.champsimtrace")
Heartbeat CPU 5 instructions: 20000006 cycles: 7847371 heartbeat IPC: 2.595 cumulative IPC: 2.549 (Simulation time: 00 hr 22 min 00 sec)
*** Reached end of trace: (4, "traces/canneal_big4.champsimtrace")
*** Reached end of trace: (3, "traces/canneal_big3.champsimtrace")
*** Reached end of trace: (2, "traces/canneal_big2.champsimtrace")
*** Reached end of trace: (7, "traces/canneal_big2.champsimtrace")
*** Reached end of trace: (0, "traces/canneal_big0.champsimtrace")
*** Reached end of trace: (5, "traces/canneal_big0.champsimtrace")
*** Reached end of trace: (4, "traces/canneal_big4.champsimtrace")
*** Reached end of trace: (3, "traces/canneal_big3.champsimtrace")
Heartbeat CPU 4 instructions: 40000001 cycles: 10003631 heartbeat IPC: 4 cumulative IPC: 3.999 (Simulation time: 00 hr 29 min 05 sec)
Heartbeat CPU 3 instructions: 40000001 cycles: 10003657 heartbeat IPC: 4 cumulative IPC: 3.999 (Simulation time: 00 hr 29 min 05 sec)
*** Reached end of trace: (2, "traces/canneal_big2.champsimtrace")
*** Reached end of trace: (7, "traces/canneal_big2.champsimtrace")
Heartbeat CPU 2 instructions: 40000001 cycles: 10003806 heartbeat IPC: 4 cumulative IPC: 3.998 (Simulation time: 00 hr 29 min 05 sec)
Heartbeat CPU 7 instructions: 40000001 cycles: 10003813 heartbeat IPC: 4 cumulative IPC: 3.998 (Simulation time: 00 hr 29 min 05 sec)
*** Reached end of trace: (1, "traces/canneal_big1.champsimtrace")
*** Reached end of trace: (6, "traces/canneal_big1.champsimtrace")
*** Reached end of trace: (4, "traces/canneal_big4.champsimtrace")
*** Reached end of trace: (3, "traces/canneal_big3.champsimtrace")
*** Reached end of trace: (2, "traces/canneal_big2.champsimtrace")
*** Reached end of trace: (7, "traces/canneal_big2.champsimtrace")
*** Reached end of trace: (0, "traces/canneal_big0.champsimtrace")
Heartbeat CPU 0 instructions: 30000009 cycles: 11681396 heartbeat IPC: 2.6 cumulative IPC: 2.568 (Simulation time: 00 hr 34 min 16 sec)
*** Reached end of trace: (5, "traces/canneal_big0.champsimtrace")
Heartbeat CPU 5 instructions: 30000009 cycles: 11701317 heartbeat IPC: 2.595 cumulative IPC: 2.564 (Simulation time: 00 hr 34 min 21 sec)
*** Reached end of trace: (4, "traces/canneal_big4.champsimtrace")
*** Reached end of trace: (3, "traces/canneal_big3.champsimtrace")
Heartbeat CPU 4 instructions: 50000001 cycles: 12503631 heartbeat IPC: 4 cumulative IPC: 3.999 (Simulation time: 00 hr 37 min 12 sec)
Warmup finished CPU 4 instructions: 50000001 cycles: 12503631 cumulative IPC: 3.999 (Simulation time: 00 hr 37 min 12 sec)
Heartbeat CPU 3 instructions: 50000001 cycles: 12503657 heartbeat IPC: 4 cumulative IPC: 3.999 (Simulation time: 00 hr 37 min 12 sec)
Warmup finished CPU 3 instructions: 50000001 cycles: 12503657 cumulative IPC: 3.999 (Simulation time: 00 hr 37 min 12 sec)
*** Reached end of trace: (2, "traces/canneal_big2.champsimtrace")
*** Reached end of trace: (7, "traces/canneal_big2.champsimtrace")
Heartbeat CPU 2 instructions: 50000001 cycles: 12503806 heartbeat IPC: 4 cumulative IPC: 3.999 (Simulation time: 00 hr 37 min 12 sec)
Warmup finished CPU 2 instructions: 50000001 cycles: 12503806 cumulative IPC: 3.999 (Simulation time: 00 hr 37 min 12 sec)
Heartbeat CPU 7 instructions: 50000001 cycles: 12503813 heartbeat IPC: 4 cumulative IPC: 3.999 (Simulation time: 00 hr 37 min 12 sec)
Warmup finished CPU 7 instructions: 50000001 cycles: 12503813 cumulative IPC: 3.999 (Simulation time: 00 hr 37 min 12 sec)
*** Reached end of trace: (1, "traces/canneal_big1.champsimtrace")
Heartbeat CPU 1 instructions: 20000004 cycles: 12982392 heartbeat IPC: 1.759 cumulative IPC: 1.541 (Simulation time: 00 hr 38 min 51 sec)
*** Reached end of trace: (6, "traces/canneal_big1.champsimtrace")
Heartbeat CPU 6 instructions: 20000004 cycles: 13023500 heartbeat IPC: 1.75 cumulative IPC: 1.536 (Simulation time: 00 hr 39 min 00 sec)
*** Reached end of trace: (0, "traces/canneal_big0.champsimtrace")
*** Reached end of trace: (5, "traces/canneal_big0.champsimtrace")
*** Reached end of trace: (4, "traces/canneal_big4.champsimtrace")
*** Reached end of trace: (3, "traces/canneal_big3.champsimtrace")
*** Reached end of trace: (2, "traces/canneal_big2.champsimtrace")
*** Reached end of trace: (7, "traces/canneal_big2.champsimtrace")
*** Reached end of trace: (4, "traces/canneal_big4.champsimtrace")
*** Reached end of trace: (3, "traces/canneal_big3.champsimtrace")
Heartbeat CPU 4 instructions: 60000001 cycles: 15003631 heartbeat IPC: 4 cumulative IPC: 3.999 (Simulation time: 00 hr 44 min 37 sec)
Heartbeat CPU 3 instructions: 60000001 cycles: 15003657 heartbeat IPC: 4 cumulative IPC: 3.999 (Simulation time: 00 hr 44 min 37 sec)
*** Reached end of trace: (2, "traces/canneal_big2.champsimtrace")
*** Reached end of trace: (7, "traces/canneal_big2.champsimtrace")
Heartbeat CPU 2 instructions: 60000001 cycles: 15003806 heartbeat IPC: 4 cumulative IPC: 3.999 (Simulation time: 00 hr 44 min 37 sec)
Heartbeat CPU 7 instructions: 60000001 cycles: 15003813 heartbeat IPC: 4 cumulative IPC: 3.999 (Simulation time: 00 hr 44 min 37 sec)
*** Reached end of trace: (0, "traces/canneal_big0.champsimtrace")
Heartbeat CPU 0 instructions: 40000012 cycles: 15527719 heartbeat IPC: 2.6 cumulative IPC: 2.576 (Simulation time: 00 hr 45 min 56 sec)
*** Reached end of trace: (5, "traces/canneal_big0.champsimtrace")
Heartbeat CPU 5 instructions: 40000012 cycles: 15554683 heartbeat IPC: 2.595 cumulative IPC: 2.572 (Simulation time: 00 hr 46 min 00 sec)
*** Reached end of trace: (1, "traces/canneal_big1.champsimtrace")
*** Reached end of trace: (6, "traces/canneal_big1.champsimtrace")
*** Reached end of trace: (4, "traces/canneal_big4.champsimtrace")
*** Reached end of trace: (3, "traces/canneal_big3.champsimtrace")
*** Reached end of trace: (2, "traces/canneal_big2.champsimtrace")
*** Reached end of trace: (7, "traces/canneal_big2.champsimtrace")
*** Reached end of trace: (0, "traces/canneal_big0.champsimtrace")
*** Reached end of trace: (5, "traces/canneal_big0.champsimtrace")
*** Reached end of trace: (4, "traces/canneal_big4.champsimtrace")
*** Reached end of trace: (3, "traces/canneal_big3.champsimtrace")
Heartbeat CPU 4 instructions: 70000001 cycles: 17503631 heartbeat IPC: 4 cumulative IPC: 3.999 (Simulation time: 00 hr 52 min 45 sec)
Heartbeat CPU 3 instructions: 70000001 cycles: 17503657 heartbeat IPC: 4 cumulative IPC: 3.999 (Simulation time: 00 hr 52 min 45 sec)
*** Reached end of trace: (2, "traces/canneal_big2.champsimtrace")
*** Reached end of trace: (7, "traces/canneal_big2.champsimtrace")
Heartbeat CPU 2 instructions: 70000001 cycles: 17503806 heartbeat IPC: 4 cumulative IPC: 3.999 (Simulation time: 00 hr 52 min 45 sec)
Heartbeat CPU 7 instructions: 70000001 cycles: 17503813 heartbeat IPC: 4 cumulative IPC: 3.999 (Simulation time: 00 hr 52 min 45 sec)
*** Reached end of trace: (1, "traces/canneal_big1.champsimtrace")
Heartbeat CPU 1 instructions: 30000004 cycles: 18664714 heartbeat IPC: 1.76 cumulative IPC: 1.607 (Simulation time: 00 hr 57 min 01 sec)
*** Reached end of trace: (6, "traces/canneal_big1.champsimtrace")
Heartbeat CPU 6 instructions: 30000004 cycles: 18741746 heartbeat IPC: 1.749 cumulative IPC: 1.601 (Simulation time: 00 hr 57 min 17 sec)
*** Reached end of trace: (4, "traces/canneal_big4.champsimtrace")
*** Reached end of trace: (3, "traces/canneal_big3.champsimtrace")
*** Reached end of trace: (2, "traces/canneal_big2.champsimtrace")
*** Reached end of trace: (7, "traces/canneal_big2.champsimtrace")
*** Reached end of trace: (0, "traces/canneal_big0.champsimtrace")
Warmup finished CPU 0 instructions: 50000000 cycles: 19372702 cumulative IPC: 2.581 (Simulation time: 00 hr 59 min 22 sec)
Heartbeat CPU 0 instructions: 50000015 cycles: 19372705 heartbeat IPC: 2.601 cumulative IPC: 2.581 (Simulation time: 00 hr 59 min 22 sec)
*** Reached end of trace: (5, "traces/canneal_big0.champsimtrace")
Warmup finished CPU 5 instructions: 50000000 cycles: 19408236 cumulative IPC: 2.576 (Simulation time: 00 hr 59 min 31 sec)
Heartbeat CPU 5 instructions: 50000015 cycles: 19408239 heartbeat IPC: 2.595 cumulative IPC: 2.576 (Simulation time: 00 hr 59 min 31 sec)
*** Reached end of trace: (4, "traces/canneal_big4.champsimtrace")
*** Reached end of trace: (3, "traces/canneal_big3.champsimtrace")
Heartbeat CPU 4 instructions: 80000001 cycles: 20003631 heartbeat IPC: 4 cumulative IPC: 3.999 (Simulation time: 01 hr 01 min 08 sec)
Heartbeat CPU 3 instructions: 80000001 cycles: 20003657 heartbeat IPC: 4 cumulative IPC: 3.999 (Simulation time: 01 hr 01 min 08 sec)
*** Reached end of trace: (2, "traces/canneal_big2.champsimtrace")
*** Reached end of trace: (7, "traces/canneal_big2.champsimtrace")
Heartbeat CPU 2 instructions: 80000001 cycles: 20003806 heartbeat IPC: 4 cumulative IPC: 3.999 (Simulation time: 01 hr 01 min 08 sec)
Heartbeat CPU 7 instructions: 80000001 cycles: 20003813 heartbeat IPC: 4 cumulative IPC: 3.999 (Simulation time: 01 hr 01 min 08 sec)
*** Reached end of trace: (4, "traces/canneal_big4.champsimtrace")
*** Reached end of trace: (3, "traces/canneal_big3.champsimtrace")
*** Reached end of trace: (2, "traces/canneal_big2.champsimtrace")
*** Reached end of trace: (7, "traces/canneal_big2.champsimtrace")
*** Reached end of trace: (0, "traces/canneal_big0.champsimtrace")
*** Reached end of trace: (5, "traces/canneal_big0.champsimtrace")
*** Reached end of trace: (1, "traces/canneal_big1.champsimtrace")
*** Reached end of trace: (6, "traces/canneal_big1.champsimtrace")
*** Reached end of trace: (4, "traces/canneal_big4.champsimtrace")
*** Reached end of trace: (3, "traces/canneal_big3.champsimtrace")
Heartbeat CPU 4 instructions: 90000001 cycles: 22503631 heartbeat IPC: 4 cumulative IPC: 3.999 (Simulation time: 01 hr 07 min 28 sec)
Heartbeat CPU 3 instructions: 90000001 cycles: 22503657 heartbeat IPC: 4 cumulative IPC: 3.999 (Simulation time: 01 hr 07 min 28 sec)
*** Reached end of trace: (2, "traces/canneal_big2.champsimtrace")
*** Reached end of trace: (7, "traces/canneal_big2.champsimtrace")
Heartbeat CPU 2 instructions: 90000001 cycles: 22503806 heartbeat IPC: 4 cumulative IPC: 3.999 (Simulation time: 01 hr 07 min 28 sec)
Heartbeat CPU 7 instructions: 90000001 cycles: 22503813 heartbeat IPC: 4 cumulative IPC: 3.999 (Simulation time: 01 hr 07 min 28 sec)
*** Reached end of trace: (0, "traces/canneal_big0.champsimtrace")
Heartbeat CPU 0 instructions: 60000018 cycles: 23217654 heartbeat IPC: 2.601 cumulative IPC: 2.584 (Simulation time: 01 hr 09 min 11 sec)
*** Reached end of trace: (5, "traces/canneal_big0.champsimtrace")
Heartbeat CPU 5 instructions: 60000018 cycles: 23261853 heartbeat IPC: 2.595 cumulative IPC: 2.579 (Simulation time: 01 hr 09 min 18 sec)
*** Reached end of trace: (4, "traces/canneal_big4.champsimtrace")
*** Reached end of trace: (3, "traces/canneal_big3.champsimtrace")
*** Reached end of trace: (2, "traces/canneal_big2.champsimtrace")
*** Reached end of trace: (7, "traces/canneal_big2.champsimtrace")
*** Reached end of trace: (1, "traces/canneal_big1.champsimtrace")
Heartbeat CPU 1 instructions: 40000006 cycles: 24346523 heartbeat IPC: 1.76 cumulative IPC: 1.643 (Simulation time: 01 hr 11 min 58 sec)
*** Reached end of trace: (6, "traces/canneal_big1.champsimtrace")
Heartbeat CPU 6 instructions: 40000006 cycles: 24461030 heartbeat IPC: 1.748 cumulative IPC: 1.635 (Simulation time: 01 hr 12 min 14 sec)
*** Reached end of trace: (4, "traces/canneal_big4.champsimtrace")
*** Reached end of trace: (3, "traces/canneal_big3.champsimtrace")
Heartbeat CPU 4 instructions: 100000001 cycles: 25003631 heartbeat IPC: 4 cumulative IPC: 3.999 (Simulation time: 01 hr 13 min 32 sec)
Heartbeat CPU 3 instructions: 100000001 cycles: 25003657 heartbeat IPC: 4 cumulative IPC: 3.999 (Simulation time: 01 hr 13 min 32 sec)
*** Reached end of trace: (2, "traces/canneal_big2.champsimtrace")
*** Reached end of trace: (7, "traces/canneal_big2.champsimtrace")
Heartbeat CPU 2 instructions: 100000001 cycles: 25003806 heartbeat IPC: 4 cumulative IPC: 3.999 (Simulation time: 01 hr 13 min 32 sec)
Heartbeat CPU 7 instructions: 100000001 cycles: 25003813 heartbeat IPC: 4 cumulative IPC: 3.999 (Simulation time: 01 hr 13 min 32 sec)
*** Reached end of trace: (0, "traces/canneal_big0.champsimtrace")
*** Reached end of trace: (5, "traces/canneal_big0.champsimtrace")
*** Reached end of trace: (4, "traces/canneal_big4.champsimtrace")
*** Reached end of trace: (3, "traces/canneal_big3.champsimtrace")
*** Reached end of trace: (2, "traces/canneal_big2.champsimtrace")
*** Reached end of trace: (7, "traces/canneal_big2.champsimtrace")
*** Reached end of trace: (0, "traces/canneal_big0.champsimtrace")
Heartbeat CPU 0 instructions: 70000021 cycles: 27062578 heartbeat IPC: 2.601 cumulative IPC: 2.587 (Simulation time: 01 hr 20 min 53 sec)
*** Reached end of trace: (5, "traces/canneal_big0.champsimtrace")
Heartbeat CPU 5 instructions: 70000021 cycles: 27116074 heartbeat IPC: 2.595 cumulative IPC: 2.581 (Simulation time: 01 hr 21 min 04 sec)
*** Reached end of trace: (1, "traces/canneal_big1.champsimtrace")
*** Reached end of trace: (6, "traces/canneal_big1.champsimtrace")
*** Reached end of trace: (4, "traces/canneal_big4.champsimtrace")
*** Reached end of trace: (3, "traces/canneal_big3.champsimtrace")
Heartbeat CPU 4 instructions: 110000001 cycles: 27503631 heartbeat IPC: 4 cumulative IPC: 3.999 (Simulation time: 01 hr 22 min 38 sec)
Heartbeat CPU 3 instructions: 110000001 cycles: 27503657 heartbeat IPC: 4 cumulative IPC: 3.999 (Simulation time: 01 hr 22 min 38 sec)
*** Reached end of trace: (2, "traces/canneal_big2.champsimtrace")
*** Reached end of trace: (7, "traces/canneal_big2.champsimtrace")
Heartbeat CPU 2 instructions: 110000001 cycles: 27503806 heartbeat IPC: 4 cumulative IPC: 3.999 (Simulation time: 01 hr 22 min 38 sec)
Heartbeat CPU 7 instructions: 110000001 cycles: 27503813 heartbeat IPC: 4 cumulative IPC: 3.999 (Simulation time: 01 hr 22 min 38 sec)
*** Reached end of trace: (4, "traces/canneal_big4.champsimtrace")
*** Reached end of trace: (3, "traces/canneal_big3.champsimtrace")
*** Reached end of trace: (2, "traces/canneal_big2.champsimtrace")
*** Reached end of trace: (7, "traces/canneal_big2.champsimtrace")
*** Reached end of trace: (0, "traces/canneal_big0.champsimtrace")
*** Reached end of trace: (5, "traces/canneal_big0.champsimtrace")
*** Reached end of trace: (4, "traces/canneal_big4.champsimtrace")
*** Reached end of trace: (3, "traces/canneal_big3.champsimtrace")
Heartbeat CPU 4 instructions: 120000001 cycles: 30003631 heartbeat IPC: 4 cumulative IPC: 4 (Simulation time: 01 hr 31 min 02 sec)
Heartbeat CPU 3 instructions: 120000001 cycles: 30003657 heartbeat IPC: 4 cumulative IPC: 4 (Simulation time: 01 hr 31 min 02 sec)
*** Reached end of trace: (2, "traces/canneal_big2.champsimtrace")
*** Reached end of trace: (7, "traces/canneal_big2.champsimtrace")
Heartbeat CPU 2 instructions: 120000001 cycles: 30003806 heartbeat IPC: 4 cumulative IPC: 3.999 (Simulation time: 01 hr 31 min 02 sec)
Heartbeat CPU 7 instructions: 120000001 cycles: 30003813 heartbeat IPC: 4 cumulative IPC: 3.999 (Simulation time: 01 hr 31 min 02 sec)
*** Reached end of trace: (1, "traces/canneal_big1.champsimtrace")
Warmup finished CPU 1 instructions: 50000000 cycles: 30028106 cumulative IPC: 1.665 (Simulation time: 01 hr 31 min 07 sec)
Heartbeat CPU 1 instructions: 50000008 cycles: 30028124 heartbeat IPC: 1.76 cumulative IPC: 1.665 (Simulation time: 01 hr 31 min 07 sec)
*** Reached end of trace: (6, "traces/canneal_big1.champsimtrace")
Warmup finished CPU 6 instructions: 50000000 cycles: 30180536 cumulative IPC: 1.657 (Simulation time: 01 hr 31 min 29 sec)
Warmup complete CPU 7 instructions: 120706893 cycles: 30180536 cumulative IPC: 3.999 (Simulation time: 01 hr 31 min 29 sec)
Warmup complete CPU 6 instructions: 50000000 cycles: 30180536 cumulative IPC: 1.657 (Simulation time: 01 hr 31 min 29 sec)
Warmup complete CPU 5 instructions: 78096174 cycles: 30180536 cumulative IPC: 2.588 (Simulation time: 01 hr 31 min 29 sec)
Warmup complete CPU 4 instructions: 120707621 cycles: 30180536 cumulative IPC: 4 (Simulation time: 01 hr 31 min 29 sec)
Warmup complete CPU 3 instructions: 120707517 cycles: 30180536 cumulative IPC: 4 (Simulation time: 01 hr 31 min 29 sec)
Warmup complete CPU 2 instructions: 120706921 cycles: 30180536 cumulative IPC: 3.999 (Simulation time: 01 hr 31 min 29 sec)
Warmup complete CPU 1 instructions: 50231320 cycles: 30180536 cumulative IPC: 1.664 (Simulation time: 01 hr 31 min 29 sec)
Warmup complete CPU 0 instructions: 78244389 cycles: 30180536 cumulative IPC: 2.593 (Simulation time: 01 hr 31 min 29 sec)
Heartbeat CPU 6 instructions: 50000008 cycles: 30180907 heartbeat IPC: 1.748 cumulative IPC: 0.02156 (Simulation time: 01 hr 31 min 30 sec)
*** Reached end of trace: (0, "traces/canneal_big0.champsimtrace")
Heartbeat CPU 0 instructions: 80000021 cycles: 30848180 heartbeat IPC: 2.642 cumulative IPC: 2.63 (Simulation time: 01 hr 33 min 08 sec)
*** Reached end of trace: (5, "traces/canneal_big0.champsimtrace")
Heartbeat CPU 5 instructions: 80000021 cycles: 30916430 heartbeat IPC: 2.631 cumulative IPC: 2.587 (Simulation time: 01 hr 33 min 19 sec)
*** Reached end of trace: (4, "traces/canneal_big4.champsimtrace")
*** Reached end of trace: (3, "traces/canneal_big3.champsimtrace")
*** Reached end of trace: (2, "traces/canneal_big2.champsimtrace")
*** Reached end of trace: (7, "traces/canneal_big2.champsimtrace")
*** Reached end of trace: (4, "traces/canneal_big4.champsimtrace")
*** Reached end of trace: (3, "traces/canneal_big3.champsimtrace")
Heartbeat CPU 4 instructions: 130000001 cycles: 32503631 heartbeat IPC: 4 cumulative IPC: 4 (Simulation time: 01 hr 37 min 17 sec)
Heartbeat CPU 3 instructions: 130000001 cycles: 32503657 heartbeat IPC: 4 cumulative IPC: 4 (Simulation time: 01 hr 37 min 17 sec)
*** Reached end of trace: (2, "traces/canneal_big2.champsimtrace")
*** Reached end of trace: (7, "traces/canneal_big2.champsimtrace")
Heartbeat CPU 2 instructions: 130000001 cycles: 32503806 heartbeat IPC: 4 cumulative IPC: 4 (Simulation time: 01 hr 37 min 17 sec)
Heartbeat CPU 7 instructions: 130000001 cycles: 32503813 heartbeat IPC: 4 cumulative IPC: 4 (Simulation time: 01 hr 37 min 17 sec)
*** Reached end of trace: (0, "traces/canneal_big0.champsimtrace")
*** Reached end of trace: (5, "traces/canneal_big0.champsimtrace")
*** Reached end of trace: (4, "traces/canneal_big4.champsimtrace")
*** Reached end of trace: (3, "traces/canneal_big3.champsimtrace")
*** Reached end of trace: (2, "traces/canneal_big2.champsimtrace")
*** Reached end of trace: (7, "traces/canneal_big2.champsimtrace")
*** Reached end of trace: (4, "traces/canneal_big4.champsimtrace")
*** Reached end of trace: (3, "traces/canneal_big3.champsimtrace")
Heartbeat CPU 4 instructions: 140000001 cycles: 35003631 heartbeat IPC: 4 cumulative IPC: 4 (Simulation time: 01 hr 45 min 12 sec)
Heartbeat CPU 3 instructions: 140000001 cycles: 35003657 heartbeat IPC: 4 cumulative IPC: 4 (Simulation time: 01 hr 45 min 12 sec)
*** Reached end of trace: (2, "traces/canneal_big2.champsimtrace")
*** Reached end of trace: (7, "traces/canneal_big2.champsimtrace")
Heartbeat CPU 2 instructions: 140000001 cycles: 35003806 heartbeat IPC: 4 cumulative IPC: 4 (Simulation time: 01 hr 45 min 12 sec)
Heartbeat CPU 7 instructions: 140000001 cycles: 35003813 heartbeat IPC: 4 cumulative IPC: 4 (Simulation time: 01 hr 45 min 12 sec)
*** Reached end of trace: (0, "traces/canneal_big0.champsimtrace")
Heartbeat CPU 0 instructions: 90000022 cycles: 35197757 heartbeat IPC: 2.299 cumulative IPC: 2.343 (Simulation time: 01 hr 45 min 45 sec)
*** Reached end of trace: (5, "traces/canneal_big0.champsimtrace")
Heartbeat CPU 5 instructions: 90000022 cycles: 35216371 heartbeat IPC: 2.326 cumulative IPC: 2.364 (Simulation time: 01 hr 45 min 48 sec)
*** Reached end of trace: (4, "traces/canneal_big4.champsimtrace")
*** Reached end of trace: (3, "traces/canneal_big3.champsimtrace")
*** Reached end of trace: (2, "traces/canneal_big2.champsimtrace")
*** Reached end of trace: (7, "traces/canneal_big2.champsimtrace")
*** Reached end of trace: (0, "traces/canneal_big0.champsimtrace")
*** Reached end of trace: (5, "traces/canneal_big0.champsimtrace")
*** Reached end of trace: (4, "traces/canneal_big4.champsimtrace")
*** Reached end of trace: (3, "traces/canneal_big3.champsimtrace")
Heartbeat CPU 4 instructions: 150000001 cycles: 37503631 heartbeat IPC: 4 cumulative IPC: 4 (Simulation time: 01 hr 54 min 01 sec)
Heartbeat CPU 3 instructions: 150000001 cycles: 37503657 heartbeat IPC: 4 cumulative IPC: 4 (Simulation time: 01 hr 54 min 01 sec)
*** Reached end of trace: (2, "traces/canneal_big2.champsimtrace")
*** Reached end of trace: (7, "traces/canneal_big2.champsimtrace")
Heartbeat CPU 2 instructions: 150000001 cycles: 37503806 heartbeat IPC: 4 cumulative IPC: 4 (Simulation time: 01 hr 54 min 01 sec)
Heartbeat CPU 7 instructions: 150000001 cycles: 37503813 heartbeat IPC: 4 cumulative IPC: 4 (Simulation time: 01 hr 54 min 01 sec)
*** Reached end of trace: (4, "traces/canneal_big4.champsimtrace")
*** Reached end of trace: (3, "traces/canneal_big3.champsimtrace")
*** Reached end of trace: (2, "traces/canneal_big2.champsimtrace")
*** Reached end of trace: (7, "traces/canneal_big2.champsimtrace")
*** Reached end of trace: (0, "traces/canneal_big0.champsimtrace")
Heartbeat CPU 0 instructions: 100000025 cycles: 39405658 heartbeat IPC: 2.376 cumulative IPC: 2.358 (Simulation time: 02 hr 00 min 31 sec)
*** Reached end of trace: (5, "traces/canneal_big0.champsimtrace")
Heartbeat CPU 5 instructions: 100000025 cycles: 39434347 heartbeat IPC: 2.371 cumulative IPC: 2.367 (Simulation time: 02 hr 00 min 37 sec)
*** Reached end of trace: (4, "traces/canneal_big4.champsimtrace")
*** Reached end of trace: (3, "traces/canneal_big3.champsimtrace")
Heartbeat CPU 4 instructions: 160000001 cycles: 40003631 heartbeat IPC: 4 cumulative IPC: 4 (Simulation time: 02 hr 02 min 17 sec)
Heartbeat CPU 3 instructions: 160000001 cycles: 40003657 heartbeat IPC: 4 cumulative IPC: 4 (Simulation time: 02 hr 02 min 17 sec)
*** Reached end of trace: (2, "traces/canneal_big2.champsimtrace")
*** Reached end of trace: (7, "traces/canneal_big2.champsimtrace")
Heartbeat CPU 2 instructions: 160000001 cycles: 40003806 heartbeat IPC: 4 cumulative IPC: 4 (Simulation time: 02 hr 02 min 17 sec)
Heartbeat CPU 7 instructions: 160000001 cycles: 40003813 heartbeat IPC: 4 cumulative IPC: 4 (Simulation time: 02 hr 02 min 17 sec)
*** Reached end of trace: (4, "traces/canneal_big4.champsimtrace")
*** Reached end of trace: (3, "traces/canneal_big3.champsimtrace")
*** Reached end of trace: (2, "traces/canneal_big2.champsimtrace")
*** Reached end of trace: (7, "traces/canneal_big2.champsimtrace")
*** Reached end of trace: (0, "traces/canneal_big0.champsimtrace")
*** Reached end of trace: (5, "traces/canneal_big0.champsimtrace")
*** Reached end of trace: (4, "traces/canneal_big4.champsimtrace")
*** Reached end of trace: (3, "traces/canneal_big3.champsimtrace")
Heartbeat CPU 4 instructions: 170000001 cycles: 42503631 heartbeat IPC: 4 cumulative IPC: 4 (Simulation time: 02 hr 08 min 17 sec)
Heartbeat CPU 3 instructions: 170000001 cycles: 42503657 heartbeat IPC: 4 cumulative IPC: 4 (Simulation time: 02 hr 08 min 17 sec)
*** Reached end of trace: (2, "traces/canneal_big2.champsimtrace")
*** Reached end of trace: (7, "traces/canneal_big2.champsimtrace")
Heartbeat CPU 2 instructions: 170000001 cycles: 42503806 heartbeat IPC: 4 cumulative IPC: 4 (Simulation time: 02 hr 08 min 17 sec)
Heartbeat CPU 7 instructions: 170000001 cycles: 42503813 heartbeat IPC: 4 cumulative IPC: 4 (Simulation time: 02 hr 08 min 17 sec)
*** Reached end of trace: (0, "traces/canneal_big0.champsimtrace")
Heartbeat CPU 0 instructions: 110000028 cycles: 43571135 heartbeat IPC: 2.401 cumulative IPC: 2.371 (Simulation time: 02 hr 10 min 47 sec)
*** Reached end of trace: (5, "traces/canneal_big0.champsimtrace")
Heartbeat CPU 5 instructions: 110000028 cycles: 43600883 heartbeat IPC: 2.4 cumulative IPC: 2.377 (Simulation time: 02 hr 10 min 52 sec)
*** Reached end of trace: (4, "traces/canneal_big4.champsimtrace")
*** Reached end of trace: (3, "traces/canneal_big3.champsimtrace")
*** Reached end of trace: (2, "traces/canneal_big2.champsimtrace")
*** Reached end of trace: (7, "traces/canneal_big2.champsimtrace")
*** Reached end of trace: (4, "traces/canneal_big4.champsimtrace")
*** Reached end of trace: (3, "traces/canneal_big3.champsimtrace")
Heartbeat CPU 4 instructions: 180000001 cycles: 45003631 heartbeat IPC: 4 cumulative IPC: 4 (Simulation time: 02 hr 14 min 24 sec)
Heartbeat CPU 3 instructions: 180000001 cycles: 45003657 heartbeat IPC: 4 cumulative IPC: 4 (Simulation time: 02 hr 14 min 24 sec)
*** Reached end of trace: (2, "traces/canneal_big2.champsimtrace")
*** Reached end of trace: (7, "traces/canneal_big2.champsimtrace")
Heartbeat CPU 2 instructions: 180000001 cycles: 45003806 heartbeat IPC: 4 cumulative IPC: 4 (Simulation time: 02 hr 14 min 24 sec)
Heartbeat CPU 7 instructions: 180000001 cycles: 45003813 heartbeat IPC: 4 cumulative IPC: 4 (Simulation time: 02 hr 14 min 24 sec)
*** Reached end of trace: (1, "traces/canneal_big1.champsimtrace")
*** Reached end of trace: (0, "traces/canneal_big0.champsimtrace")
*** Reached end of trace: (5, "traces/canneal_big0.champsimtrace")
*** Reached end of trace: (6, "traces/canneal_big1.champsimtrace")
*** Reached end of trace: (4, "traces/canneal_big4.champsimtrace")
*** Reached end of trace: (3, "traces/canneal_big3.champsimtrace")
*** Reached end of trace: (2, "traces/canneal_big2.champsimtrace")
*** Reached end of trace: (7, "traces/canneal_big2.champsimtrace")
*** Reached end of trace: (4, "traces/canneal_big4.champsimtrace")
*** Reached end of trace: (3, "traces/canneal_big3.champsimtrace")
Heartbeat CPU 4 instructions: 190000001 cycles: 47503631 heartbeat IPC: 4 cumulative IPC: 4 (Simulation time: 02 hr 22 min 50 sec)
Heartbeat CPU 3 instructions: 190000001 cycles: 47503657 heartbeat IPC: 4 cumulative IPC: 4 (Simulation time: 02 hr 22 min 50 sec)
*** Reached end of trace: (2, "traces/canneal_big2.champsimtrace")
*** Reached end of trace: (7, "traces/canneal_big2.champsimtrace")
Heartbeat CPU 2 instructions: 190000001 cycles: 47503806 heartbeat IPC: 4 cumulative IPC: 4 (Simulation time: 02 hr 22 min 50 sec)
Heartbeat CPU 7 instructions: 190000001 cycles: 47503813 heartbeat IPC: 4 cumulative IPC: 4 (Simulation time: 02 hr 22 min 50 sec)
*** Reached end of trace: (0, "traces/canneal_big0.champsimtrace")
Heartbeat CPU 0 instructions: 120000031 cycles: 47699756 heartbeat IPC: 2.422 cumulative IPC: 2.383 (Simulation time: 02 hr 23 min 29 sec)
*** Reached end of trace: (5, "traces/canneal_big0.champsimtrace")
Heartbeat CPU 5 instructions: 120000031 cycles: 47728578 heartbeat IPC: 2.423 cumulative IPC: 2.388 (Simulation time: 02 hr 23 min 35 sec)
*** Reached end of trace: (4, "traces/canneal_big4.champsimtrace")
*** Reached end of trace: (3, "traces/canneal_big3.champsimtrace")
*** Reached end of trace: (2, "traces/canneal_big2.champsimtrace")
*** Reached end of trace: (7, "traces/canneal_big2.champsimtrace")
*** Reached end of trace: (0, "traces/canneal_big0.champsimtrace")
*** Reached end of trace: (5, "traces/canneal_big0.champsimtrace")
*** Reached end of trace: (4, "traces/canneal_big4.champsimtrace")
*** Reached end of trace: (3, "traces/canneal_big3.champsimtrace")
Heartbeat CPU 4 instructions: 200000001 cycles: 50003631 heartbeat IPC: 4 cumulative IPC: 4 (Simulation time: 02 hr 31 min 27 sec)
Heartbeat CPU 3 instructions: 200000001 cycles: 50003657 heartbeat IPC: 4 cumulative IPC: 4 (Simulation time: 02 hr 31 min 27 sec)
*** Reached end of trace: (2, "traces/canneal_big2.champsimtrace")
*** Reached end of trace: (7, "traces/canneal_big2.champsimtrace")
Heartbeat CPU 2 instructions: 200000001 cycles: 50003806 heartbeat IPC: 4 cumulative IPC: 4 (Simulation time: 02 hr 31 min 27 sec)
Heartbeat CPU 7 instructions: 200000001 cycles: 50003813 heartbeat IPC: 4 cumulative IPC: 4 (Simulation time: 02 hr 31 min 27 sec)
*** Reached end of trace: (4, "traces/canneal_big4.champsimtrace")
*** Reached end of trace: (3, "traces/canneal_big3.champsimtrace")
*** Reached end of trace: (2, "traces/canneal_big2.champsimtrace")
*** Reached end of trace: (7, "traces/canneal_big2.champsimtrace")
*** Reached end of trace: (0, "traces/canneal_big0.champsimtrace")
Heartbeat CPU 0 instructions: 130000034 cycles: 51802409 heartbeat IPC: 2.437 cumulative IPC: 2.394 (Simulation time: 02 hr 36 min 18 sec)
*** Reached end of trace: (5, "traces/canneal_big0.champsimtrace")
Heartbeat CPU 5 instructions: 130000034 cycles: 51831899 heartbeat IPC: 2.437 cumulative IPC: 2.397 (Simulation time: 02 hr 36 min 23 sec)
*** Reached end of trace: (4, "traces/canneal_big4.champsimtrace")
*** Reached end of trace: (3, "traces/canneal_big3.champsimtrace")
Heartbeat CPU 4 instructions: 210000001 cycles: 52503631 heartbeat IPC: 4 cumulative IPC: 4 (Simulation time: 02 hr 38 min 16 sec)
Heartbeat CPU 3 instructions: 210000001 cycles: 52503657 heartbeat IPC: 4 cumulative IPC: 4 (Simulation time: 02 hr 38 min 16 sec)
*** Reached end of trace: (2, "traces/canneal_big2.champsimtrace")
*** Reached end of trace: (7, "traces/canneal_big2.champsimtrace")
Heartbeat CPU 2 instructions: 210000001 cycles: 52503806 heartbeat IPC: 4 cumulative IPC: 4 (Simulation time: 02 hr 38 min 17 sec)
Heartbeat CPU 7 instructions: 210000001 cycles: 52503813 heartbeat IPC: 4 cumulative IPC: 4 (Simulation time: 02 hr 38 min 17 sec)
*** Reached end of trace: (4, "traces/canneal_big4.champsimtrace")
*** Reached end of trace: (3, "traces/canneal_big3.champsimtrace")
*** Reached end of trace: (2, "traces/canneal_big2.champsimtrace")
*** Reached end of trace: (7, "traces/canneal_big2.champsimtrace")
*** Reached end of trace: (0, "traces/canneal_big0.champsimtrace")
*** Reached end of trace: (5, "traces/canneal_big0.champsimtrace")
*** Reached end of trace: (4, "traces/canneal_big4.champsimtrace")
*** Reached end of trace: (3, "traces/canneal_big3.champsimtrace")
Heartbeat CPU 4 instructions: 220000001 cycles: 55003631 heartbeat IPC: 4 cumulative IPC: 4 (Simulation time: 02 hr 44 min 51 sec)
Heartbeat CPU 3 instructions: 220000001 cycles: 55003657 heartbeat IPC: 4 cumulative IPC: 4 (Simulation time: 02 hr 44 min 51 sec)
*** Reached end of trace: (2, "traces/canneal_big2.champsimtrace")
*** Reached end of trace: (7, "traces/canneal_big2.champsimtrace")
Heartbeat CPU 2 instructions: 220000001 cycles: 55003806 heartbeat IPC: 4 cumulative IPC: 4 (Simulation time: 02 hr 44 min 52 sec)
Heartbeat CPU 7 instructions: 220000001 cycles: 55003813 heartbeat IPC: 4 cumulative IPC: 4 (Simulation time: 02 hr 44 min 52 sec)
Simulation finished CPU 7 instructions: 100000000 cycles: 25000000 cumulative IPC: 4 (Simulation time: 02 hr 45 min 19 sec)
Simulation finished CPU 4 instructions: 100000000 cycles: 25000000 cumulative IPC: 4 (Simulation time: 02 hr 45 min 19 sec)
Simulation finished CPU 3 instructions: 100000000 cycles: 25000000 cumulative IPC: 4 (Simulation time: 02 hr 45 min 19 sec)
Simulation finished CPU 2 instructions: 100000000 cycles: 25000000 cumulative IPC: 4 (Simulation time: 02 hr 45 min 19 sec)
*** Reached end of trace: (0, "traces/canneal_big0.champsimtrace")
Heartbeat CPU 0 instructions: 140000037 cycles: 55890460 heartbeat IPC: 2.446 cumulative IPC: 2.402 (Simulation time: 02 hr 47 min 42 sec)
*** Reached end of trace: (5, "traces/canneal_big0.champsimtrace")
Heartbeat CPU 5 instructions: 140000034 cycles: 55920895 heartbeat IPC: 2.446 cumulative IPC: 2.405 (Simulation time: 02 hr 47 min 50 sec)
*** Reached end of trace: (4, "traces/canneal_big4.champsimtrace")
*** Reached end of trace: (3, "traces/canneal_big3.champsimtrace")
*** Reached end of trace: (2, "traces/canneal_big2.champsimtrace")
*** Reached end of trace: (7, "traces/canneal_big2.champsimtrace")
*** Reached end of trace: (4, "traces/canneal_big4.champsimtrace")
*** Reached end of trace: (3, "traces/canneal_big3.champsimtrace")
Heartbeat CPU 4 instructions: 230000001 cycles: 57503631 heartbeat IPC: 4 cumulative IPC: 4 (Simulation time: 02 hr 53 min 47 sec)
Heartbeat CPU 3 instructions: 230000001 cycles: 57503657 heartbeat IPC: 4 cumulative IPC: 4 (Simulation time: 02 hr 53 min 47 sec)
*** Reached end of trace: (2, "traces/canneal_big2.champsimtrace")
*** Reached end of trace: (7, "traces/canneal_big2.champsimtrace")
Heartbeat CPU 2 instructions: 230000001 cycles: 57503806 heartbeat IPC: 4 cumulative IPC: 4 (Simulation time: 02 hr 53 min 47 sec)
Heartbeat CPU 7 instructions: 230000001 cycles: 57503813 heartbeat IPC: 4 cumulative IPC: 4 (Simulation time: 02 hr 53 min 47 sec)
*** Reached end of trace: (0, "traces/canneal_big0.champsimtrace")
*** Reached end of trace: (5, "traces/canneal_big0.champsimtrace")
*** Reached end of trace: (4, "traces/canneal_big4.champsimtrace")
*** Reached end of trace: (3, "traces/canneal_big3.champsimtrace")
*** Reached end of trace: (2, "traces/canneal_big2.champsimtrace")
*** Reached end of trace: (7, "traces/canneal_big2.champsimtrace")
*** Reached end of trace: (0, "traces/canneal_big0.champsimtrace")
Heartbeat CPU 0 instructions: 150000040 cycles: 59952294 heartbeat IPC: 2.462 cumulative IPC: 2.41 (Simulation time: 03 hr 02 min 48 sec)
*** Reached end of trace: (5, "traces/canneal_big0.champsimtrace")
Heartbeat CPU 5 instructions: 150000035 cycles: 59982046 heartbeat IPC: 2.462 cumulative IPC: 2.413 (Simulation time: 03 hr 02 min 52 sec)
*** Reached end of trace: (4, "traces/canneal_big4.champsimtrace")
*** Reached end of trace: (3, "traces/canneal_big3.champsimtrace")
Heartbeat CPU 4 instructions: 240000001 cycles: 60003631 heartbeat IPC: 4 cumulative IPC: 4 (Simulation time: 03 hr 02 min 57 sec)
Heartbeat CPU 3 instructions: 240000001 cycles: 60003657 heartbeat IPC: 4 cumulative IPC: 4 (Simulation time: 03 hr 02 min 57 sec)
*** Reached end of trace: (2, "traces/canneal_big2.champsimtrace")
*** Reached end of trace: (7, "traces/canneal_big2.champsimtrace")
Heartbeat CPU 2 instructions: 240000001 cycles: 60003806 heartbeat IPC: 4 cumulative IPC: 4 (Simulation time: 03 hr 02 min 57 sec)
Heartbeat CPU 7 instructions: 240000001 cycles: 60003813 heartbeat IPC: 4 cumulative IPC: 4 (Simulation time: 03 hr 02 min 57 sec)
*** Reached end of trace: (1, "traces/canneal_big1.champsimtrace")
Heartbeat CPU 1 instructions: 60000010 cycles: 60692884 heartbeat IPC: 0.3261 cumulative IPC: 0.3202 (Simulation time: 03 hr 04 min 44 sec)
*** Reached end of trace: (4, "traces/canneal_big4.champsimtrace")
*** Reached end of trace: (3, "traces/canneal_big3.champsimtrace")
*** Reached end of trace: (2, "traces/canneal_big2.champsimtrace")
*** Reached end of trace: (7, "traces/canneal_big2.champsimtrace")
*** Reached end of trace: (6, "traces/canneal_big1.champsimtrace")
Heartbeat CPU 6 instructions: 60000010 cycles: 61703463 heartbeat IPC: 0.3172 cumulative IPC: 0.3172 (Simulation time: 03 hr 07 min 22 sec)
*** Reached end of trace: (0, "traces/canneal_big0.champsimtrace")
*** Reached end of trace: (5, "traces/canneal_big0.champsimtrace")
*** Reached end of trace: (4, "traces/canneal_big4.champsimtrace")
*** Reached end of trace: (3, "traces/canneal_big3.champsimtrace")
Heartbeat CPU 4 instructions: 250000001 cycles: 62503631 heartbeat IPC: 4 cumulative IPC: 4 (Simulation time: 03 hr 09 min 21 sec)
Heartbeat CPU 3 instructions: 250000001 cycles: 62503657 heartbeat IPC: 4 cumulative IPC: 4 (Simulation time: 03 hr 09 min 21 sec)
*** Reached end of trace: (2, "traces/canneal_big2.champsimtrace")
*** Reached end of trace: (7, "traces/canneal_big2.champsimtrace")
Heartbeat CPU 2 instructions: 250000001 cycles: 62503806 heartbeat IPC: 4 cumulative IPC: 4 (Simulation time: 03 hr 09 min 21 sec)
Heartbeat CPU 7 instructions: 250000001 cycles: 62503813 heartbeat IPC: 4 cumulative IPC: 4 (Simulation time: 03 hr 09 min 21 sec)
*** Reached end of trace: (4, "traces/canneal_big4.champsimtrace")
*** Reached end of trace: (3, "traces/canneal_big3.champsimtrace")
*** Reached end of trace: (2, "traces/canneal_big2.champsimtrace")
*** Reached end of trace: (7, "traces/canneal_big2.champsimtrace")
*** Reached end of trace: (0, "traces/canneal_big0.champsimtrace")
Heartbeat CPU 0 instructions: 160000043 cycles: 64013511 heartbeat IPC: 2.462 cumulative IPC: 2.416 (Simulation time: 03 hr 13 min 01 sec)
*** Reached end of trace: (5, "traces/canneal_big0.champsimtrace")
Heartbeat CPU 5 instructions: 160000038 cycles: 64041897 heartbeat IPC: 2.463 cumulative IPC: 2.419 (Simulation time: 03 hr 13 min 05 sec)
*** Reached end of trace: (4, "traces/canneal_big4.champsimtrace")
*** Reached end of trace: (3, "traces/canneal_big3.champsimtrace")
Heartbeat CPU 4 instructions: 260000001 cycles: 65003631 heartbeat IPC: 4 cumulative IPC: 4 (Simulation time: 03 hr 15 min 20 sec)
Heartbeat CPU 3 instructions: 260000001 cycles: 65003657 heartbeat IPC: 4 cumulative IPC: 4 (Simulation time: 03 hr 15 min 20 sec)
*** Reached end of trace: (2, "traces/canneal_big2.champsimtrace")
*** Reached end of trace: (7, "traces/canneal_big2.champsimtrace")
Heartbeat CPU 2 instructions: 260000001 cycles: 65003806 heartbeat IPC: 4 cumulative IPC: 4 (Simulation time: 03 hr 15 min 20 sec)
Heartbeat CPU 7 instructions: 260000001 cycles: 65003813 heartbeat IPC: 4 cumulative IPC: 4 (Simulation time: 03 hr 15 min 20 sec)
*** Reached end of trace: (0, "traces/canneal_big0.champsimtrace")
*** Reached end of trace: (5, "traces/canneal_big0.champsimtrace")
*** Reached end of trace: (4, "traces/canneal_big4.champsimtrace")
*** Reached end of trace: (3, "traces/canneal_big3.champsimtrace")
*** Reached end of trace: (2, "traces/canneal_big2.champsimtrace")
*** Reached end of trace: (7, "traces/canneal_big2.champsimtrace")
*** Reached end of trace: (4, "traces/canneal_big4.champsimtrace")
*** Reached end of trace: (3, "traces/canneal_big3.champsimtrace")
Heartbeat CPU 4 instructions: 270000001 cycles: 67503631 heartbeat IPC: 4 cumulative IPC: 4 (Simulation time: 03 hr 24 min 06 sec)
Heartbeat CPU 3 instructions: 270000001 cycles: 67503657 heartbeat IPC: 4 cumulative IPC: 4 (Simulation time: 03 hr 24 min 06 sec)
*** Reached end of trace: (2, "traces/canneal_big2.champsimtrace")
*** Reached end of trace: (7, "traces/canneal_big2.champsimtrace")
Heartbeat CPU 2 instructions: 270000001 cycles: 67503806 heartbeat IPC: 4 cumulative IPC: 4 (Simulation time: 03 hr 24 min 06 sec)
Heartbeat CPU 7 instructions: 270000001 cycles: 67503813 heartbeat IPC: 4 cumulative IPC: 4 (Simulation time: 03 hr 24 min 06 sec)
*** Reached end of trace: (0, "traces/canneal_big0.champsimtrace")
Heartbeat CPU 0 instructions: 170000046 cycles: 68056147 heartbeat IPC: 2.474 cumulative IPC: 2.423 (Simulation time: 03 hr 26 min 02 sec)
*** Reached end of trace: (5, "traces/canneal_big0.champsimtrace")
Heartbeat CPU 5 instructions: 170000041 cycles: 68083722 heartbeat IPC: 2.474 cumulative IPC: 2.425 (Simulation time: 03 hr 26 min 09 sec)
*** Reached end of trace: (4, "traces/canneal_big4.champsimtrace")
*** Reached end of trace: (3, "traces/canneal_big3.champsimtrace")
*** Reached end of trace: (2, "traces/canneal_big2.champsimtrace")
*** Reached end of trace: (7, "traces/canneal_big2.champsimtrace")
*** Reached end of trace: (4, "traces/canneal_big4.champsimtrace")
*** Reached end of trace: (3, "traces/canneal_big3.champsimtrace")
Heartbeat CPU 4 instructions: 280000001 cycles: 70003631 heartbeat IPC: 4 cumulative IPC: 4 (Simulation time: 03 hr 32 min 49 sec)
Heartbeat CPU 3 instructions: 280000001 cycles: 70003657 heartbeat IPC: 4 cumulative IPC: 4 (Simulation time: 03 hr 32 min 49 sec)
*** Reached end of trace: (2, "traces/canneal_big2.champsimtrace")
*** Reached end of trace: (7, "traces/canneal_big2.champsimtrace")
Heartbeat CPU 2 instructions: 280000001 cycles: 70003806 heartbeat IPC: 4 cumulative IPC: 4 (Simulation time: 03 hr 32 min 49 sec)
Heartbeat CPU 7 instructions: 280000001 cycles: 70003813 heartbeat IPC: 4 cumulative IPC: 4 (Simulation time: 03 hr 32 min 49 sec)
*** Reached end of trace: (0, "traces/canneal_big0.champsimtrace")
*** Reached end of trace: (5, "traces/canneal_big0.champsimtrace")
*** Reached end of trace: (4, "traces/canneal_big4.champsimtrace")
*** Reached end of trace: (3, "traces/canneal_big3.champsimtrace")
*** Reached end of trace: (2, "traces/canneal_big2.champsimtrace")
*** Reached end of trace: (7, "traces/canneal_big2.champsimtrace")
Simulation finished CPU 5 instructions: 100000000 cycles: 41218265 cumulative IPC: 2.426 (Simulation time: 03 hr 36 min 30 sec)
Simulation finished CPU 0 instructions: 100000000 cycles: 41259440 cumulative IPC: 2.424 (Simulation time: 03 hr 36 min 40 sec)
*** Reached end of trace: (0, "traces/canneal_big0.champsimtrace")
Heartbeat CPU 0 instructions: 180000049 cycles: 72090205 heartbeat IPC: 2.479 cumulative IPC: 2.428 (Simulation time: 03 hr 38 min 48 sec)
*** Reached end of trace: (5, "traces/canneal_big0.champsimtrace")
Heartbeat CPU 5 instructions: 180000044 cycles: 72116469 heartbeat IPC: 2.48 cumulative IPC: 2.43 (Simulation time: 03 hr 38 min 53 sec)
*** Reached end of trace: (4, "traces/canneal_big4.champsimtrace")
*** Reached end of trace: (3, "traces/canneal_big3.champsimtrace")
Heartbeat CPU 4 instructions: 290000001 cycles: 72503631 heartbeat IPC: 4 cumulative IPC: 4 (Simulation time: 03 hr 40 min 00 sec)
Heartbeat CPU 3 instructions: 290000001 cycles: 72503657 heartbeat IPC: 4 cumulative IPC: 4 (Simulation time: 03 hr 40 min 00 sec)
*** Reached end of trace: (2, "traces/canneal_big2.champsimtrace")
*** Reached end of trace: (7, "traces/canneal_big2.champsimtrace")
Heartbeat CPU 2 instructions: 290000001 cycles: 72503806 heartbeat IPC: 4 cumulative IPC: 4 (Simulation time: 03 hr 40 min 00 sec)
Heartbeat CPU 7 instructions: 290000001 cycles: 72503813 heartbeat IPC: 4 cumulative IPC: 4 (Simulation time: 03 hr 40 min 00 sec)
*** Reached end of trace: (4, "traces/canneal_big4.champsimtrace")
*** Reached end of trace: (3, "traces/canneal_big3.champsimtrace")
*** Reached end of trace: (2, "traces/canneal_big2.champsimtrace")
*** Reached end of trace: (7, "traces/canneal_big2.champsimtrace")
*** Reached end of trace: (0, "traces/canneal_big0.champsimtrace")
*** Reached end of trace: (5, "traces/canneal_big0.champsimtrace")
*** Reached end of trace: (4, "traces/canneal_big4.champsimtrace")
*** Reached end of trace: (3, "traces/canneal_big3.champsimtrace")
Heartbeat CPU 4 instructions: 300000001 cycles: 75003631 heartbeat IPC: 4 cumulative IPC: 4 (Simulation time: 03 hr 47 min 40 sec)
Heartbeat CPU 3 instructions: 300000001 cycles: 75003657 heartbeat IPC: 4 cumulative IPC: 4 (Simulation time: 03 hr 47 min 40 sec)
*** Reached end of trace: (2, "traces/canneal_big2.champsimtrace")
*** Reached end of trace: (7, "traces/canneal_big2.champsimtrace")
Heartbeat CPU 2 instructions: 300000001 cycles: 75003806 heartbeat IPC: 4 cumulative IPC: 4 (Simulation time: 03 hr 47 min 40 sec)
Heartbeat CPU 7 instructions: 300000001 cycles: 75003813 heartbeat IPC: 4 cumulative IPC: 4 (Simulation time: 03 hr 47 min 40 sec)
*** Reached end of trace: (0, "traces/canneal_big0.champsimtrace")
Heartbeat CPU 0 instructions: 190000052 cycles: 76126093 heartbeat IPC: 2.478 cumulative IPC: 2.432 (Simulation time: 03 hr 50 min 48 sec)
*** Reached end of trace: (5, "traces/canneal_big0.champsimtrace")
Heartbeat CPU 5 instructions: 190000044 cycles: 76153134 heartbeat IPC: 2.477 cumulative IPC: 2.434 (Simulation time: 03 hr 50 min 55 sec)
*** Reached end of trace: (4, "traces/canneal_big4.champsimtrace")
*** Reached end of trace: (3, "traces/canneal_big3.champsimtrace")
*** Reached end of trace: (2, "traces/canneal_big2.champsimtrace")
*** Reached end of trace: (7, "traces/canneal_big2.champsimtrace")
*** Reached end of trace: (1, "traces/canneal_big1.champsimtrace")
*** Reached end of trace: (6, "traces/canneal_big1.champsimtrace")
*** Reached end of trace: (4, "traces/canneal_big4.champsimtrace")
*** Reached end of trace: (3, "traces/canneal_big3.champsimtrace")
Heartbeat CPU 4 instructions: 310000001 cycles: 77503631 heartbeat IPC: 4 cumulative IPC: 4 (Simulation time: 03 hr 55 min 59 sec)
Heartbeat CPU 3 instructions: 310000001 cycles: 77503657 heartbeat IPC: 4 cumulative IPC: 4 (Simulation time: 03 hr 55 min 59 sec)
*** Reached end of trace: (2, "traces/canneal_big2.champsimtrace")
*** Reached end of trace: (7, "traces/canneal_big2.champsimtrace")
Heartbeat CPU 2 instructions: 310000001 cycles: 77503806 heartbeat IPC: 4 cumulative IPC: 4 (Simulation time: 03 hr 55 min 59 sec)
Heartbeat CPU 7 instructions: 310000001 cycles: 77503813 heartbeat IPC: 4 cumulative IPC: 4 (Simulation time: 03 hr 55 min 59 sec)
*** Reached end of trace: (0, "traces/canneal_big0.champsimtrace")
*** Reached end of trace: (5, "traces/canneal_big0.champsimtrace")
*** Reached end of trace: (4, "traces/canneal_big4.champsimtrace")
*** Reached end of trace: (3, "traces/canneal_big3.champsimtrace")
*** Reached end of trace: (2, "traces/canneal_big2.champsimtrace")
*** Reached end of trace: (7, "traces/canneal_big2.champsimtrace")
*** Reached end of trace: (4, "traces/canneal_big4.champsimtrace")
*** Reached end of trace: (3, "traces/canneal_big3.champsimtrace")
Heartbeat CPU 4 instructions: 320000001 cycles: 80003631 heartbeat IPC: 4 cumulative IPC: 4 (Simulation time: 04 hr 04 min 36 sec)
Heartbeat CPU 3 instructions: 320000001 cycles: 80003657 heartbeat IPC: 4 cumulative IPC: 4 (Simulation time: 04 hr 04 min 36 sec)
*** Reached end of trace: (2, "traces/canneal_big2.champsimtrace")
*** Reached end of trace: (7, "traces/canneal_big2.champsimtrace")
Heartbeat CPU 2 instructions: 320000001 cycles: 80003806 heartbeat IPC: 4 cumulative IPC: 4 (Simulation time: 04 hr 04 min 36 sec)
Heartbeat CPU 7 instructions: 320000001 cycles: 80003813 heartbeat IPC: 4 cumulative IPC: 4 (Simulation time: 04 hr 04 min 36 sec)
*** Reached end of trace: (0, "traces/canneal_big0.champsimtrace")
Heartbeat CPU 0 instructions: 200000052 cycles: 80157897 heartbeat IPC: 2.48 cumulative IPC: 2.436 (Simulation time: 04 hr 04 min 59 sec)
*** Reached end of trace: (5, "traces/canneal_big0.champsimtrace")
Heartbeat CPU 5 instructions: 200000045 cycles: 80183751 heartbeat IPC: 2.481 cumulative IPC: 2.438 (Simulation time: 04 hr 05 min 03 sec)
*** Reached end of trace: (4, "traces/canneal_big4.champsimtrace")
*** Reached end of trace: (3, "traces/canneal_big3.champsimtrace")
*** Reached end of trace: (2, "traces/canneal_big2.champsimtrace")
*** Reached end of trace: (7, "traces/canneal_big2.champsimtrace")
*** Reached end of trace: (0, "traces/canneal_big0.champsimtrace")
*** Reached end of trace: (5, "traces/canneal_big0.champsimtrace")
*** Reached end of trace: (4, "traces/canneal_big4.champsimtrace")
*** Reached end of trace: (3, "traces/canneal_big3.champsimtrace")
Heartbeat CPU 4 instructions: 330000001 cycles: 82503631 heartbeat IPC: 4 cumulative IPC: 4 (Simulation time: 04 hr 11 min 26 sec)
Heartbeat CPU 3 instructions: 330000001 cycles: 82503657 heartbeat IPC: 4 cumulative IPC: 4 (Simulation time: 04 hr 11 min 26 sec)
*** Reached end of trace: (2, "traces/canneal_big2.champsimtrace")
*** Reached end of trace: (7, "traces/canneal_big2.champsimtrace")
Heartbeat CPU 2 instructions: 330000001 cycles: 82503806 heartbeat IPC: 4 cumulative IPC: 4 (Simulation time: 04 hr 11 min 26 sec)
Heartbeat CPU 7 instructions: 330000001 cycles: 82503813 heartbeat IPC: 4 cumulative IPC: 4 (Simulation time: 04 hr 11 min 26 sec)
*** Reached end of trace: (4, "traces/canneal_big4.champsimtrace")
*** Reached end of trace: (3, "traces/canneal_big3.champsimtrace")
*** Reached end of trace: (2, "traces/canneal_big2.champsimtrace")
*** Reached end of trace: (7, "traces/canneal_big2.champsimtrace")
*** Reached end of trace: (0, "traces/canneal_big0.champsimtrace")
Heartbeat CPU 0 instructions: 210000053 cycles: 84174747 heartbeat IPC: 2.49 cumulative IPC: 2.44 (Simulation time: 04 hr 15 min 57 sec)
*** Reached end of trace: (5, "traces/canneal_big0.champsimtrace")
Heartbeat CPU 5 instructions: 210000045 cycles: 84204523 heartbeat IPC: 2.487 cumulative IPC: 2.442 (Simulation time: 04 hr 16 min 02 sec)
*** Reached end of trace: (4, "traces/canneal_big4.champsimtrace")
*** Reached end of trace: (3, "traces/canneal_big3.champsimtrace")
Heartbeat CPU 4 instructions: 340000001 cycles: 85003631 heartbeat IPC: 4 cumulative IPC: 4 (Simulation time: 04 hr 17 min 54 sec)
Heartbeat CPU 3 instructions: 340000001 cycles: 85003657 heartbeat IPC: 4 cumulative IPC: 4 (Simulation time: 04 hr 17 min 54 sec)
*** Reached end of trace: (2, "traces/canneal_big2.champsimtrace")
*** Reached end of trace: (7, "traces/canneal_big2.champsimtrace")
Heartbeat CPU 2 instructions: 340000001 cycles: 85003806 heartbeat IPC: 4 cumulative IPC: 4 (Simulation time: 04 hr 17 min 54 sec)
Heartbeat CPU 7 instructions: 340000001 cycles: 85003813 heartbeat IPC: 4 cumulative IPC: 4 (Simulation time: 04 hr 17 min 54 sec)
*** Reached end of trace: (0, "traces/canneal_big0.champsimtrace")
*** Reached end of trace: (5, "traces/canneal_big0.champsimtrace")
*** Reached end of trace: (4, "traces/canneal_big4.champsimtrace")
*** Reached end of trace: (3, "traces/canneal_big3.champsimtrace")
*** Reached end of trace: (2, "traces/canneal_big2.champsimtrace")
*** Reached end of trace: (7, "traces/canneal_big2.champsimtrace")
*** Reached end of trace: (4, "traces/canneal_big4.champsimtrace")
*** Reached end of trace: (3, "traces/canneal_big3.champsimtrace")
Heartbeat CPU 4 instructions: 350000001 cycles: 87503631 heartbeat IPC: 4 cumulative IPC: 4 (Simulation time: 04 hr 25 min 31 sec)
Heartbeat CPU 3 instructions: 350000001 cycles: 87503657 heartbeat IPC: 4 cumulative IPC: 4 (Simulation time: 04 hr 25 min 31 sec)
*** Reached end of trace: (2, "traces/canneal_big2.champsimtrace")
*** Reached end of trace: (7, "traces/canneal_big2.champsimtrace")
Heartbeat CPU 2 instructions: 350000001 cycles: 87503806 heartbeat IPC: 4 cumulative IPC: 4 (Simulation time: 04 hr 25 min 31 sec)
Heartbeat CPU 7 instructions: 350000001 cycles: 87503813 heartbeat IPC: 4 cumulative IPC: 4 (Simulation time: 04 hr 25 min 31 sec)
*** Reached end of trace: (0, "traces/canneal_big0.champsimtrace")
Heartbeat CPU 0 instructions: 220000053 cycles: 88194788 heartbeat IPC: 2.488 cumulative IPC: 2.443 (Simulation time: 04 hr 27 min 55 sec)
*** Reached end of trace: (5, "traces/canneal_big0.champsimtrace")
Heartbeat CPU 5 instructions: 220000046 cycles: 88221321 heartbeat IPC: 2.49 cumulative IPC: 2.445 (Simulation time: 04 hr 28 min 01 sec)
*** Reached end of trace: (4, "traces/canneal_big4.champsimtrace")
*** Reached end of trace: (3, "traces/canneal_big3.champsimtrace")
*** Reached end of trace: (2, "traces/canneal_big2.champsimtrace")
*** Reached end of trace: (7, "traces/canneal_big2.champsimtrace")
*** Reached end of trace: (4, "traces/canneal_big4.champsimtrace")
*** Reached end of trace: (3, "traces/canneal_big3.champsimtrace")
Heartbeat CPU 4 instructions: 360000001 cycles: 90003631 heartbeat IPC: 4 cumulative IPC: 4 (Simulation time: 04 hr 32 min 56 sec)
Heartbeat CPU 3 instructions: 360000001 cycles: 90003657 heartbeat IPC: 4 cumulative IPC: 4 (Simulation time: 04 hr 32 min 56 sec)
*** Reached end of trace: (2, "traces/canneal_big2.champsimtrace")
*** Reached end of trace: (7, "traces/canneal_big2.champsimtrace")
Heartbeat CPU 2 instructions: 360000001 cycles: 90003806 heartbeat IPC: 4 cumulative IPC: 4 (Simulation time: 04 hr 32 min 56 sec)
Heartbeat CPU 7 instructions: 360000001 cycles: 90003813 heartbeat IPC: 4 cumulative IPC: 4 (Simulation time: 04 hr 32 min 56 sec)
*** Reached end of trace: (0, "traces/canneal_big0.champsimtrace")
*** Reached end of trace: (5, "traces/canneal_big0.champsimtrace")
*** Reached end of trace: (4, "traces/canneal_big4.champsimtrace")
*** Reached end of trace: (3, "traces/canneal_big3.champsimtrace")
*** Reached end of trace: (2, "traces/canneal_big2.champsimtrace")
*** Reached end of trace: (7, "traces/canneal_big2.champsimtrace")
*** Reached end of trace: (1, "traces/canneal_big1.champsimtrace")
Heartbeat CPU 1 instructions: 70000012 cycles: 92046660 heartbeat IPC: 0.3189 cumulative IPC: 0.3195 (Simulation time: 04 hr 39 min 06 sec)
*** Reached end of trace: (0, "traces/canneal_big0.champsimtrace")
Heartbeat CPU 0 instructions: 230000054 cycles: 92206559 heartbeat IPC: 2.493 cumulative IPC: 2.447 (Simulation time: 04 hr 39 min 43 sec)
*** Reached end of trace: (5, "traces/canneal_big0.champsimtrace")
Heartbeat CPU 5 instructions: 230000049 cycles: 92235421 heartbeat IPC: 2.491 cumulative IPC: 2.448 (Simulation time: 04 hr 39 min 50 sec)
*** Reached end of trace: (4, "traces/canneal_big4.champsimtrace")
*** Reached end of trace: (3, "traces/canneal_big3.champsimtrace")
Heartbeat CPU 4 instructions: 370000001 cycles: 92503631 heartbeat IPC: 4 cumulative IPC: 4 (Simulation time: 04 hr 40 min 55 sec)
Heartbeat CPU 3 instructions: 370000001 cycles: 92503657 heartbeat IPC: 4 cumulative IPC: 4 (Simulation time: 04 hr 40 min 55 sec)
*** Reached end of trace: (2, "traces/canneal_big2.champsimtrace")
*** Reached end of trace: (7, "traces/canneal_big2.champsimtrace")
Heartbeat CPU 2 instructions: 370000001 cycles: 92503806 heartbeat IPC: 4 cumulative IPC: 4 (Simulation time: 04 hr 40 min 55 sec)
Heartbeat CPU 7 instructions: 370000001 cycles: 92503813 heartbeat IPC: 4 cumulative IPC: 4 (Simulation time: 04 hr 40 min 55 sec)
*** Reached end of trace: (6, "traces/canneal_big1.champsimtrace")
Heartbeat CPU 6 instructions: 70000012 cycles: 93181639 heartbeat IPC: 0.3177 cumulative IPC: 0.3175 (Simulation time: 04 hr 43 min 17 sec)
*** Reached end of trace: (4, "traces/canneal_big4.champsimtrace")
*** Reached end of trace: (3, "traces/canneal_big3.champsimtrace")
*** Reached end of trace: (2, "traces/canneal_big2.champsimtrace")
*** Reached end of trace: (7, "traces/canneal_big2.champsimtrace")
*** Reached end of trace: (0, "traces/canneal_big0.champsimtrace")
*** Reached end of trace: (5, "traces/canneal_big0.champsimtrace")
*** Reached end of trace: (4, "traces/canneal_big4.champsimtrace")
*** Reached end of trace: (3, "traces/canneal_big3.champsimtrace")
Heartbeat CPU 4 instructions: 380000001 cycles: 95003631 heartbeat IPC: 4 cumulative IPC: 4 (Simulation time: 04 hr 49 min 48 sec)
Heartbeat CPU 3 instructions: 380000001 cycles: 95003657 heartbeat IPC: 4 cumulative IPC: 4 (Simulation time: 04 hr 49 min 48 sec)
*** Reached end of trace: (2, "traces/canneal_big2.champsimtrace")
*** Reached end of trace: (7, "traces/canneal_big2.champsimtrace")
Heartbeat CPU 2 instructions: 380000001 cycles: 95003806 heartbeat IPC: 4 cumulative IPC: 4 (Simulation time: 04 hr 49 min 48 sec)
Heartbeat CPU 7 instructions: 380000001 cycles: 95003813 heartbeat IPC: 4 cumulative IPC: 4 (Simulation time: 04 hr 49 min 48 sec)
*** Reached end of trace: (0, "traces/canneal_big0.champsimtrace")
Heartbeat CPU 0 instructions: 240000054 cycles: 96242744 heartbeat IPC: 2.478 cumulative IPC: 2.449 (Simulation time: 04 hr 53 min 13 sec)
*** Reached end of trace: (4, "traces/canneal_big4.champsimtrace")
*** Reached end of trace: (3, "traces/canneal_big3.champsimtrace")
*** Reached end of trace: (2, "traces/canneal_big2.champsimtrace")
*** Reached end of trace: (7, "traces/canneal_big2.champsimtrace")
*** Reached end of trace: (5, "traces/canneal_big0.champsimtrace")
Heartbeat CPU 5 instructions: 240000049 cycles: 96269049 heartbeat IPC: 2.479 cumulative IPC: 2.45 (Simulation time: 04 hr 53 min 16 sec)
*** Reached end of trace: (4, "traces/canneal_big4.champsimtrace")
*** Reached end of trace: (3, "traces/canneal_big3.champsimtrace")
Heartbeat CPU 4 instructions: 390000001 cycles: 97503631 heartbeat IPC: 4 cumulative IPC: 4 (Simulation time: 04 hr 56 min 50 sec)
Heartbeat CPU 3 instructions: 390000001 cycles: 97503657 heartbeat IPC: 4 cumulative IPC: 4 (Simulation time: 04 hr 56 min 50 sec)
*** Reached end of trace: (2, "traces/canneal_big2.champsimtrace")
*** Reached end of trace: (7, "traces/canneal_big2.champsimtrace")
Heartbeat CPU 2 instructions: 390000001 cycles: 97503806 heartbeat IPC: 4 cumulative IPC: 4 (Simulation time: 04 hr 56 min 50 sec)
Heartbeat CPU 7 instructions: 390000001 cycles: 97503813 heartbeat IPC: 4 cumulative IPC: 4 (Simulation time: 04 hr 56 min 50 sec)
*** Reached end of trace: (0, "traces/canneal_big0.champsimtrace")
*** Reached end of trace: (5, "traces/canneal_big0.champsimtrace")
*** Reached end of trace: (4, "traces/canneal_big4.champsimtrace")
*** Reached end of trace: (3, "traces/canneal_big3.champsimtrace")
*** Reached end of trace: (2, "traces/canneal_big2.champsimtrace")
*** Reached end of trace: (7, "traces/canneal_big2.champsimtrace")
*** Reached end of trace: (4, "traces/canneal_big4.champsimtrace")
*** Reached end of trace: (3, "traces/canneal_big3.champsimtrace")
Heartbeat CPU 4 instructions: 400000001 cycles: 100003631 heartbeat IPC: 4 cumulative IPC: 4 (Simulation time: 05 hr 03 min 07 sec)
Heartbeat CPU 3 instructions: 400000001 cycles: 100003657 heartbeat IPC: 4 cumulative IPC: 4 (Simulation time: 05 hr 03 min 07 sec)
*** Reached end of trace: (2, "traces/canneal_big2.champsimtrace")
*** Reached end of trace: (7, "traces/canneal_big2.champsimtrace")
Heartbeat CPU 2 instructions: 400000001 cycles: 100003806 heartbeat IPC: 4 cumulative IPC: 4 (Simulation time: 05 hr 03 min 07 sec)
Heartbeat CPU 7 instructions: 400000001 cycles: 100003813 heartbeat IPC: 4 cumulative IPC: 4 (Simulation time: 05 hr 03 min 07 sec)
*** Reached end of trace: (0, "traces/canneal_big0.champsimtrace")
Heartbeat CPU 0 instructions: 250000057 cycles: 100258295 heartbeat IPC: 2.49 cumulative IPC: 2.451 (Simulation time: 05 hr 03 min 44 sec)
*** Reached end of trace: (5, "traces/canneal_big0.champsimtrace")
Heartbeat CPU 5 instructions: 250000052 cycles: 100286670 heartbeat IPC: 2.489 cumulative IPC: 2.452 (Simulation time: 05 hr 03 min 48 sec)
*** Reached end of trace: (4, "traces/canneal_big4.champsimtrace")
*** Reached end of trace: (3, "traces/canneal_big3.champsimtrace")
*** Reached end of trace: (2, "traces/canneal_big2.champsimtrace")
*** Reached end of trace: (7, "traces/canneal_big2.champsimtrace")
*** Reached end of trace: (0, "traces/canneal_big0.champsimtrace")
*** Reached end of trace: (5, "traces/canneal_big0.champsimtrace")
*** Reached end of trace: (4, "traces/canneal_big4.champsimtrace")
*** Reached end of trace: (3, "traces/canneal_big3.champsimtrace")
Heartbeat CPU 4 instructions: 410000001 cycles: 102503631 heartbeat IPC: 4 cumulative IPC: 4 (Simulation time: 05 hr 11 min 00 sec)
Heartbeat CPU 3 instructions: 410000001 cycles: 102503657 heartbeat IPC: 4 cumulative IPC: 4 (Simulation time: 05 hr 11 min 00 sec)
*** Reached end of trace: (2, "traces/canneal_big2.champsimtrace")
*** Reached end of trace: (7, "traces/canneal_big2.champsimtrace")
Heartbeat CPU 2 instructions: 410000001 cycles: 102503806 heartbeat IPC: 4 cumulative IPC: 4 (Simulation time: 05 hr 11 min 00 sec)
Heartbeat CPU 7 instructions: 410000001 cycles: 102503813 heartbeat IPC: 4 cumulative IPC: 4 (Simulation time: 05 hr 11 min 00 sec)
*** Reached end of trace: (4, "traces/canneal_big4.champsimtrace")
*** Reached end of trace: (3, "traces/canneal_big3.champsimtrace")
*** Reached end of trace: (2, "traces/canneal_big2.champsimtrace")
*** Reached end of trace: (7, "traces/canneal_big2.champsimtrace")
*** Reached end of trace: (0, "traces/canneal_big0.champsimtrace")
Heartbeat CPU 0 instructions: 260000060 cycles: 104270719 heartbeat IPC: 2.492 cumulative IPC: 2.453 (Simulation time: 05 hr 16 min 05 sec)
*** Reached end of trace: (5, "traces/canneal_big0.champsimtrace")
Heartbeat CPU 5 instructions: 260000053 cycles: 104299240 heartbeat IPC: 2.492 cumulative IPC: 2.454 (Simulation time: 05 hr 16 min 12 sec)
*** Reached end of trace: (4, "traces/canneal_big4.champsimtrace")
*** Reached end of trace: (3, "traces/canneal_big3.champsimtrace")
Heartbeat CPU 4 instructions: 420000001 cycles: 105003631 heartbeat IPC: 4 cumulative IPC: 4 (Simulation time: 05 hr 18 min 14 sec)
Heartbeat CPU 3 instructions: 420000001 cycles: 105003657 heartbeat IPC: 4 cumulative IPC: 4 (Simulation time: 05 hr 18 min 14 sec)
*** Reached end of trace: (2, "traces/canneal_big2.champsimtrace")
*** Reached end of trace: (7, "traces/canneal_big2.champsimtrace")
Heartbeat CPU 2 instructions: 420000001 cycles: 105003806 heartbeat IPC: 4 cumulative IPC: 4 (Simulation time: 05 hr 18 min 14 sec)
Heartbeat CPU 7 instructions: 420000001 cycles: 105003813 heartbeat IPC: 4 cumulative IPC: 4 (Simulation time: 05 hr 18 min 14 sec)
*** Reached end of trace: (4, "traces/canneal_big4.champsimtrace")
*** Reached end of trace: (3, "traces/canneal_big3.champsimtrace")
*** Reached end of trace: (2, "traces/canneal_big2.champsimtrace")
*** Reached end of trace: (7, "traces/canneal_big2.champsimtrace")
*** Reached end of trace: (0, "traces/canneal_big0.champsimtrace")
*** Reached end of trace: (5, "traces/canneal_big0.champsimtrace")
*** Reached end of trace: (4, "traces/canneal_big4.champsimtrace")
*** Reached end of trace: (3, "traces/canneal_big3.champsimtrace")
Heartbeat CPU 4 instructions: 430000001 cycles: 107503631 heartbeat IPC: 4 cumulative IPC: 4 (Simulation time: 05 hr 25 min 25 sec)
Heartbeat CPU 3 instructions: 430000001 cycles: 107503657 heartbeat IPC: 4 cumulative IPC: 4 (Simulation time: 05 hr 25 min 25 sec)
*** Reached end of trace: (2, "traces/canneal_big2.champsimtrace")
*** Reached end of trace: (7, "traces/canneal_big2.champsimtrace")
Heartbeat CPU 2 instructions: 430000001 cycles: 107503806 heartbeat IPC: 4 cumulative IPC: 4 (Simulation time: 05 hr 25 min 25 sec)
Heartbeat CPU 7 instructions: 430000001 cycles: 107503813 heartbeat IPC: 4 cumulative IPC: 4 (Simulation time: 05 hr 25 min 25 sec)
*** Reached end of trace: (1, "traces/canneal_big1.champsimtrace")
*** Reached end of trace: (0, "traces/canneal_big0.champsimtrace")
Heartbeat CPU 0 instructions: 270000061 cycles: 108279683 heartbeat IPC: 2.494 cumulative IPC: 2.455 (Simulation time: 05 hr 27 min 18 sec)
*** Reached end of trace: (5, "traces/canneal_big0.champsimtrace")
Heartbeat CPU 5 instructions: 270000056 cycles: 108307970 heartbeat IPC: 2.495 cumulative IPC: 2.456 (Simulation time: 05 hr 27 min 22 sec)
*** Reached end of trace: (4, "traces/canneal_big4.champsimtrace")
*** Reached end of trace: (3, "traces/canneal_big3.champsimtrace")
*** Reached end of trace: (2, "traces/canneal_big2.champsimtrace")
*** Reached end of trace: (7, "traces/canneal_big2.champsimtrace")
*** Reached end of trace: (6, "traces/canneal_big1.champsimtrace")
*** Reached end of trace: (4, "traces/canneal_big4.champsimtrace")
*** Reached end of trace: (3, "traces/canneal_big3.champsimtrace")
Heartbeat CPU 4 instructions: 440000001 cycles: 110003631 heartbeat IPC: 4 cumulative IPC: 4 (Simulation time: 05 hr 31 min 51 sec)
Heartbeat CPU 3 instructions: 440000001 cycles: 110003657 heartbeat IPC: 4 cumulative IPC: 4 (Simulation time: 05 hr 31 min 51 sec)
*** Reached end of trace: (2, "traces/canneal_big2.champsimtrace")
*** Reached end of trace: (7, "traces/canneal_big2.champsimtrace")
Heartbeat CPU 2 instructions: 440000001 cycles: 110003806 heartbeat IPC: 4 cumulative IPC: 4 (Simulation time: 05 hr 31 min 51 sec)
Heartbeat CPU 7 instructions: 440000001 cycles: 110003813 heartbeat IPC: 4 cumulative IPC: 4 (Simulation time: 05 hr 31 min 51 sec)
*** Reached end of trace: (0, "traces/canneal_big0.champsimtrace")
*** Reached end of trace: (5, "traces/canneal_big0.champsimtrace")
*** Reached end of trace: (4, "traces/canneal_big4.champsimtrace")
*** Reached end of trace: (3, "traces/canneal_big3.champsimtrace")
*** Reached end of trace: (2, "traces/canneal_big2.champsimtrace")
*** Reached end of trace: (7, "traces/canneal_big2.champsimtrace")
*** Reached end of trace: (0, "traces/canneal_big0.champsimtrace")
Heartbeat CPU 0 instructions: 280000064 cycles: 112287243 heartbeat IPC: 2.495 cumulative IPC: 2.457 (Simulation time: 05 hr 39 min 43 sec)
*** Reached end of trace: (5, "traces/canneal_big0.champsimtrace")
Heartbeat CPU 5 instructions: 280000059 cycles: 112314510 heartbeat IPC: 2.496 cumulative IPC: 2.458 (Simulation time: 05 hr 39 min 48 sec)
*** Reached end of trace: (4, "traces/canneal_big4.champsimtrace")
*** Reached end of trace: (3, "traces/canneal_big3.champsimtrace")
Heartbeat CPU 4 instructions: 450000001 cycles: 112503631 heartbeat IPC: 4 cumulative IPC: 4 (Simulation time: 05 hr 40 min 30 sec)
Heartbeat CPU 3 instructions: 450000001 cycles: 112503657 heartbeat IPC: 4 cumulative IPC: 4 (Simulation time: 05 hr 40 min 30 sec)
*** Reached end of trace: (2, "traces/canneal_big2.champsimtrace")
*** Reached end of trace: (7, "traces/canneal_big2.champsimtrace")
Heartbeat CPU 2 instructions: 450000001 cycles: 112503806 heartbeat IPC: 4 cumulative IPC: 4 (Simulation time: 05 hr 40 min 31 sec)
Heartbeat CPU 7 instructions: 450000001 cycles: 112503813 heartbeat IPC: 4 cumulative IPC: 4 (Simulation time: 05 hr 40 min 31 sec)
*** Reached end of trace: (4, "traces/canneal_big4.champsimtrace")
*** Reached end of trace: (3, "traces/canneal_big3.champsimtrace")
*** Reached end of trace: (2, "traces/canneal_big2.champsimtrace")
*** Reached end of trace: (7, "traces/canneal_big2.champsimtrace")
*** Reached end of trace: (0, "traces/canneal_big0.champsimtrace")
*** Reached end of trace: (5, "traces/canneal_big0.champsimtrace")
*** Reached end of trace: (4, "traces/canneal_big4.champsimtrace")
*** Reached end of trace: (3, "traces/canneal_big3.champsimtrace")
Heartbeat CPU 4 instructions: 460000001 cycles: 115003631 heartbeat IPC: 4 cumulative IPC: 4 (Simulation time: 05 hr 49 min 19 sec)
Heartbeat CPU 3 instructions: 460000001 cycles: 115003657 heartbeat IPC: 4 cumulative IPC: 4 (Simulation time: 05 hr 49 min 19 sec)
*** Reached end of trace: (2, "traces/canneal_big2.champsimtrace")
*** Reached end of trace: (7, "traces/canneal_big2.champsimtrace")
Heartbeat CPU 2 instructions: 460000001 cycles: 115003806 heartbeat IPC: 4 cumulative IPC: 4 (Simulation time: 05 hr 49 min 19 sec)
Heartbeat CPU 7 instructions: 460000001 cycles: 115003813 heartbeat IPC: 4 cumulative IPC: 4 (Simulation time: 05 hr 49 min 19 sec)
*** Reached end of trace: (4, "traces/canneal_big4.champsimtrace")
*** Reached end of trace: (3, "traces/canneal_big3.champsimtrace")
*** Reached end of trace: (2, "traces/canneal_big2.champsimtrace")
*** Reached end of trace: (7, "traces/canneal_big2.champsimtrace")
*** Reached end of trace: (0, "traces/canneal_big0.champsimtrace")
Heartbeat CPU 0 instructions: 290000067 cycles: 116290206 heartbeat IPC: 2.498 cumulative IPC: 2.459 (Simulation time: 05 hr 53 min 33 sec)
*** Reached end of trace: (5, "traces/canneal_big0.champsimtrace")
Heartbeat CPU 5 instructions: 290000062 cycles: 116317478 heartbeat IPC: 2.498 cumulative IPC: 2.46 (Simulation time: 05 hr 53 min 38 sec)
*** Reached end of trace: (4, "traces/canneal_big4.champsimtrace")
*** Reached end of trace: (3, "traces/canneal_big3.champsimtrace")
Heartbeat CPU 4 instructions: 470000001 cycles: 117503631 heartbeat IPC: 4 cumulative IPC: 4 (Simulation time: 05 hr 57 min 28 sec)
Heartbeat CPU 3 instructions: 470000001 cycles: 117503657 heartbeat IPC: 4 cumulative IPC: 4 (Simulation time: 05 hr 57 min 28 sec)
*** Reached end of trace: (2, "traces/canneal_big2.champsimtrace")
*** Reached end of trace: (7, "traces/canneal_big2.champsimtrace")
Heartbeat CPU 2 instructions: 470000001 cycles: 117503806 heartbeat IPC: 4 cumulative IPC: 4 (Simulation time: 05 hr 57 min 28 sec)
Heartbeat CPU 7 instructions: 470000001 cycles: 117503813 heartbeat IPC: 4 cumulative IPC: 4 (Simulation time: 05 hr 57 min 28 sec)
*** Reached end of trace: (0, "traces/canneal_big0.champsimtrace")
*** Reached end of trace: (5, "traces/canneal_big0.champsimtrace")
*** Reached end of trace: (4, "traces/canneal_big4.champsimtrace")
*** Reached end of trace: (3, "traces/canneal_big3.champsimtrace")
*** Reached end of trace: (2, "traces/canneal_big2.champsimtrace")
*** Reached end of trace: (7, "traces/canneal_big2.champsimtrace")
*** Reached end of trace: (4, "traces/canneal_big4.champsimtrace")
*** Reached end of trace: (3, "traces/canneal_big3.champsimtrace")
Heartbeat CPU 4 instructions: 480000001 cycles: 120003631 heartbeat IPC: 4 cumulative IPC: 4 (Simulation time: 06 hr 03 min 25 sec)
Heartbeat CPU 3 instructions: 480000001 cycles: 120003657 heartbeat IPC: 4 cumulative IPC: 4 (Simulation time: 06 hr 03 min 25 sec)
*** Reached end of trace: (2, "traces/canneal_big2.champsimtrace")
*** Reached end of trace: (7, "traces/canneal_big2.champsimtrace")
Heartbeat CPU 2 instructions: 480000001 cycles: 120003806 heartbeat IPC: 4 cumulative IPC: 4 (Simulation time: 06 hr 03 min 25 sec)
Heartbeat CPU 7 instructions: 480000001 cycles: 120003813 heartbeat IPC: 4 cumulative IPC: 4 (Simulation time: 06 hr 03 min 25 sec)
*** Reached end of trace: (0, "traces/canneal_big0.champsimtrace")
Heartbeat CPU 0 instructions: 300000070 cycles: 120288080 heartbeat IPC: 2.501 cumulative IPC: 2.461 (Simulation time: 06 hr 04 min 05 sec)
*** Reached end of trace: (5, "traces/canneal_big0.champsimtrace")
Heartbeat CPU 5 instructions: 300000065 cycles: 120319064 heartbeat IPC: 2.499 cumulative IPC: 2.462 (Simulation time: 06 hr 04 min 10 sec)
*** Reached end of trace: (4, "traces/canneal_big4.champsimtrace")
*** Reached end of trace: (3, "traces/canneal_big3.champsimtrace")
*** Reached end of trace: (2, "traces/canneal_big2.champsimtrace")
*** Reached end of trace: (7, "traces/canneal_big2.champsimtrace")
*** Reached end of trace: (0, "traces/canneal_big0.champsimtrace")
*** Reached end of trace: (5, "traces/canneal_big0.champsimtrace")
*** Reached end of trace: (4, "traces/canneal_big4.champsimtrace")
*** Reached end of trace: (3, "traces/canneal_big3.champsimtrace")
Heartbeat CPU 4 instructions: 490000001 cycles: 122503631 heartbeat IPC: 4 cumulative IPC: 4 (Simulation time: 06 hr 11 min 09 sec)
Heartbeat CPU 3 instructions: 490000001 cycles: 122503657 heartbeat IPC: 4 cumulative IPC: 4 (Simulation time: 06 hr 11 min 09 sec)
*** Reached end of trace: (2, "traces/canneal_big2.champsimtrace")
*** Reached end of trace: (7, "traces/canneal_big2.champsimtrace")
Heartbeat CPU 2 instructions: 490000001 cycles: 122503806 heartbeat IPC: 4 cumulative IPC: 4 (Simulation time: 06 hr 11 min 09 sec)
Heartbeat CPU 7 instructions: 490000001 cycles: 122503813 heartbeat IPC: 4 cumulative IPC: 4 (Simulation time: 06 hr 11 min 09 sec)
*** Reached end of trace: (1, "traces/canneal_big1.champsimtrace")
Heartbeat CPU 1 instructions: 80000014 cycles: 123482296 heartbeat IPC: 0.3181 cumulative IPC: 0.3191 (Simulation time: 06 hr 14 min 22 sec)
*** Reached end of trace: (4, "traces/canneal_big4.champsimtrace")
*** Reached end of trace: (3, "traces/canneal_big3.champsimtrace")
*** Reached end of trace: (2, "traces/canneal_big2.champsimtrace")
*** Reached end of trace: (7, "traces/canneal_big2.champsimtrace")
*** Reached end of trace: (0, "traces/canneal_big0.champsimtrace")
Heartbeat CPU 0 instructions: 310000073 cycles: 124287077 heartbeat IPC: 2.501 cumulative IPC: 2.463 (Simulation time: 06 hr 17 min 03 sec)
*** Reached end of trace: (5, "traces/canneal_big0.champsimtrace")
Heartbeat CPU 5 instructions: 310000068 cycles: 124315115 heartbeat IPC: 2.502 cumulative IPC: 2.464 (Simulation time: 06 hr 17 min 09 sec)
*** Reached end of trace: (6, "traces/canneal_big1.champsimtrace")
Heartbeat CPU 6 instructions: 80000014 cycles: 124795115 heartbeat IPC: 0.3163 cumulative IPC: 0.3171 (Simulation time: 06 hr 19 min 00 sec)
*** Reached end of trace: (4, "traces/canneal_big4.champsimtrace")
*** Reached end of trace: (3, "traces/canneal_big3.champsimtrace")
Heartbeat CPU 4 instructions: 500000001 cycles: 125003631 heartbeat IPC: 4 cumulative IPC: 4 (Simulation time: 06 hr 19 min 44 sec)
Heartbeat CPU 3 instructions: 500000001 cycles: 125003657 heartbeat IPC: 4 cumulative IPC: 4 (Simulation time: 06 hr 19 min 44 sec)
*** Reached end of trace: (2, "traces/canneal_big2.champsimtrace")
*** Reached end of trace: (7, "traces/canneal_big2.champsimtrace")
Heartbeat CPU 2 instructions: 500000001 cycles: 125003806 heartbeat IPC: 4 cumulative IPC: 4 (Simulation time: 06 hr 19 min 44 sec)
Heartbeat CPU 7 instructions: 500000001 cycles: 125003813 heartbeat IPC: 4 cumulative IPC: 4 (Simulation time: 06 hr 19 min 44 sec)
*** Reached end of trace: (4, "traces/canneal_big4.champsimtrace")
*** Reached end of trace: (3, "traces/canneal_big3.champsimtrace")
*** Reached end of trace: (2, "traces/canneal_big2.champsimtrace")
*** Reached end of trace: (7, "traces/canneal_big2.champsimtrace")
*** Reached end of trace: (0, "traces/canneal_big0.champsimtrace")
*** Reached end of trace: (5, "traces/canneal_big0.champsimtrace")
*** Reached end of trace: (4, "traces/canneal_big4.champsimtrace")
*** Reached end of trace: (3, "traces/canneal_big3.champsimtrace")
Heartbeat CPU 4 instructions: 510000001 cycles: 127503631 heartbeat IPC: 4 cumulative IPC: 4 (Simulation time: 06 hr 28 min 14 sec)
Heartbeat CPU 3 instructions: 510000001 cycles: 127503657 heartbeat IPC: 4 cumulative IPC: 4 (Simulation time: 06 hr 28 min 14 sec)
*** Reached end of trace: (2, "traces/canneal_big2.champsimtrace")
*** Reached end of trace: (7, "traces/canneal_big2.champsimtrace")
Heartbeat CPU 2 instructions: 510000001 cycles: 127503806 heartbeat IPC: 4 cumulative IPC: 4 (Simulation time: 06 hr 28 min 14 sec)
Heartbeat CPU 7 instructions: 510000001 cycles: 127503813 heartbeat IPC: 4 cumulative IPC: 4 (Simulation time: 06 hr 28 min 14 sec)
*** Reached end of trace: (0, "traces/canneal_big0.champsimtrace")
Heartbeat CPU 0 instructions: 320000076 cycles: 128287251 heartbeat IPC: 2.5 cumulative IPC: 2.464 (Simulation time: 06 hr 30 min 14 sec)
*** Reached end of trace: (5, "traces/canneal_big0.champsimtrace")
Heartbeat CPU 5 instructions: 320000071 cycles: 128315085 heartbeat IPC: 2.5 cumulative IPC: 2.465 (Simulation time: 06 hr 30 min 18 sec)
*** Reached end of trace: (4, "traces/canneal_big4.champsimtrace")
*** Reached end of trace: (3, "traces/canneal_big3.champsimtrace")
*** Reached end of trace: (2, "traces/canneal_big2.champsimtrace")
*** Reached end of trace: (7, "traces/canneal_big2.champsimtrace")
*** Reached end of trace: (4, "traces/canneal_big4.champsimtrace")
*** Reached end of trace: (3, "traces/canneal_big3.champsimtrace")
Heartbeat CPU 4 instructions: 520000001 cycles: 130003631 heartbeat IPC: 4 cumulative IPC: 4 (Simulation time: 06 hr 34 min 23 sec)
Heartbeat CPU 3 instructions: 520000001 cycles: 130003657 heartbeat IPC: 4 cumulative IPC: 4 (Simulation time: 06 hr 34 min 23 sec)
*** Reached end of trace: (2, "traces/canneal_big2.champsimtrace")
*** Reached end of trace: (7, "traces/canneal_big2.champsimtrace")
[...]
cpu5->cpu5_DTLB PREFETCH REQUESTED:          0 ISSUED:          0 USEFUL:          0 USELESS:          0
cpu5->cpu5_DTLB AVERAGE MISS LATENCY: 3.992 cycles
cpu5_DTLB COHERENCE INVALIDATIONS:          0
cpu5_DTLB COHERENCE WRITE-HIT OTHER-SHARER EVENTS:          0
cpu4_STLB COHERENCE INVALIDATIONS:          0
cpu4_STLB COHERENCE WRITE-HIT OTHER-SHARER EVENTS:          0
cpu4_L2C COHERENCE INVALIDATIONS:          0
cpu4_L2C COHERENCE WRITE-HIT OTHER-SHARER EVENTS:          0
cpu4->cpu4_L1I TOTAL        ACCESS:  169824316 HIT:  169824316 MISS:          0 MSHR_MERGE:          0
cpu4->cpu4_L1I LOAD         ACCESS:  169824316 HIT:  169824316 MISS:          0 MSHR_MERGE:          0
cpu4->cpu4_L1I RFO          ACCESS:          0 HIT:          0 MISS:          0 MSHR_MERGE:          0
cpu4->cpu4_L1I PREFETCH     ACCESS:          0 HIT:          0 MISS:          0 MSHR_MERGE:          0
cpu4->cpu4_L1I WRITE        ACCESS:          0 HIT:          0 MISS:          0 MSHR_MERGE:          0
cpu4->cpu4_L1I TRANSLATION  ACCESS:          0 HIT:          0 MISS:          0 MSHR_MERGE:          0
cpu4->cpu4_L1I PREFETCH REQUESTED:          0 ISSUED:          0 USEFUL:          0 USELESS:          0
cpu4->cpu4_L1I AVERAGE MISS LATENCY: - cycles
cpu4_L1I COHERENCE INVALIDATIONS:          0
cpu4_L1I COHERENCE WRITE-HIT OTHER-SHARER EVENTS:          0
cpu4_L1D COHERENCE INVALIDATIONS:          0
cpu4_L1D COHERENCE WRITE-HIT OTHER-SHARER EVENTS:          0
cpu4->cpu4_ITLB TOTAL        ACCESS:  141232633 HIT:  141232633 MISS:          0 MSHR_MERGE:          0
cpu4->cpu4_ITLB LOAD         ACCESS:  141232633 HIT:  141232633 MISS:          0 MSHR_MERGE:          0
cpu4->cpu4_ITLB RFO          ACCESS:          0 HIT:          0 MISS:          0 MSHR_MERGE:          0
cpu4->cpu4_ITLB PREFETCH     ACCESS:          0 HIT:          0 MISS:          0 MSHR_MERGE:          0
cpu4->cpu4_ITLB WRITE        ACCESS:          0 HIT:          0 MISS:          0 MSHR_MERGE:          0
cpu4->cpu4_ITLB TRANSLATION  ACCESS:          0 HIT:          0 MISS:          0 MSHR_MERGE:          0
cpu4->cpu4_ITLB PREFETCH REQUESTED:          0 ISSUED:          0 USEFUL:          0 USELESS:          0
cpu4->cpu4_ITLB AVERAGE MISS LATENCY: - cycles
cpu4_ITLB COHERENCE INVALIDATIONS:          0
cpu4_ITLB COHERENCE WRITE-HIT OTHER-SHARER EVENTS:          0
cpu4_DTLB COHERENCE INVALIDATIONS:          0
cpu4_DTLB COHERENCE WRITE-HIT OTHER-SHARER EVENTS:          0
cpu3_STLB COHERENCE INVALIDATIONS:          0
cpu3_STLB COHERENCE WRITE-HIT OTHER-SHARER EVENTS:          0
cpu3_L2C COHERENCE INVALIDATIONS:          0
cpu3_L2C COHERENCE WRITE-HIT OTHER-SHARER EVENTS:          0
cpu3->cpu3_L1I TOTAL        ACCESS:  181692483 HIT:  181692483 MISS:          0 MSHR_MERGE:          0
cpu3->cpu3_L1I LOAD         ACCESS:  181692483 HIT:  181692483 MISS:          0 MSHR_MERGE:          0
cpu3->cpu3_L1I RFO          ACCESS:          0 HIT:          0 MISS:          0 MSHR_MERGE:          0
cpu3->cpu3_L1I PREFETCH     ACCESS:          0 HIT:          0 MISS:          0 MSHR_MERGE:          0
cpu3->cpu3_L1I WRITE        ACCESS:          0 HIT:          0 MISS:          0 MSHR_MERGE:          0
cpu3->cpu3_L1I TRANSLATION  ACCESS:          0 HIT:          0 MISS:          0 MSHR_MERGE:          0
cpu3->cpu3_L1I PREFETCH REQUESTED:          0 ISSUED:          0 USEFUL:          0 USELESS:          0
cpu3->cpu3_L1I AVERAGE MISS LATENCY: - cycles
cpu3_L1I COHERENCE INVALIDATIONS:          0
cpu3_L1I COHERENCE WRITE-HIT OTHER-SHARER EVENTS:          0
cpu3_L1D COHERENCE INVALIDATIONS:          0
cpu3_L1D COHERENCE WRITE-HIT OTHER-SHARER EVENTS:          0
cpu3->cpu3_ITLB TOTAL        ACCESS:  151646786 HIT:  151646786 MISS:          0 MSHR_MERGE:          0
cpu3->cpu3_ITLB LOAD         ACCESS:  151646786 HIT:  151646786 MISS:          0 MSHR_MERGE:          0
cpu3->cpu3_ITLB RFO          ACCESS:          0 HIT:          0 MISS:          0 MSHR_MERGE:          0
cpu3->cpu3_ITLB PREFETCH     ACCESS:          0 HIT:          0 MISS:          0 MSHR_MERGE:          0
cpu3->cpu3_ITLB WRITE        ACCESS:          0 HIT:          0 MISS:          0 MSHR_MERGE:          0
cpu3->cpu3_ITLB TRANSLATION  ACCESS:          0 HIT:          0 MISS:          0 MSHR_MERGE:          0
cpu3->cpu3_ITLB PREFETCH REQUESTED:          0 ISSUED:          0 USEFUL:          0 USELESS:          0
cpu3->cpu3_ITLB AVERAGE MISS LATENCY: - cycles
cpu3_ITLB COHERENCE INVALIDATIONS:          0
cpu3_ITLB COHERENCE WRITE-HIT OTHER-SHARER EVENTS:          0
cpu3_DTLB COHERENCE INVALIDATIONS:          0
cpu3_DTLB COHERENCE WRITE-HIT OTHER-SHARER EVENTS:          0
cpu2_STLB COHERENCE INVALIDATIONS:          0
cpu2_STLB COHERENCE WRITE-HIT OTHER-SHARER EVENTS:          0
cpu2_L2C COHERENCE INVALIDATIONS:          0
cpu2_L2C COHERENCE WRITE-HIT OTHER-SHARER EVENTS:          0
cpu2->cpu2_L1I TOTAL        ACCESS:  167278430 HIT:  167278430 MISS:          0 MSHR_MERGE:          0
cpu2->cpu2_L1I LOAD         ACCESS:  167278430 HIT:  167278430 MISS:          0 MSHR_MERGE:          0
cpu2->cpu2_L1I RFO          ACCESS:          0 HIT:          0 MISS:          0 MSHR_MERGE:          0
cpu2->cpu2_L1I PREFETCH     ACCESS:          0 HIT:          0 MISS:          0 MSHR_MERGE:          0
cpu2->cpu2_L1I WRITE        ACCESS:          0 HIT:          0 MISS:          0 MSHR_MERGE:          0
cpu2->cpu2_L1I TRANSLATION  ACCESS:          0 HIT:          0 MISS:          0 MSHR_MERGE:          0
cpu2->cpu2_L1I PREFETCH REQUESTED:          0 ISSUED:          0 USEFUL:          0 USELESS:          0
cpu2->cpu2_L1I AVERAGE MISS LATENCY: - cycles
cpu2_L1I COHERENCE INVALIDATIONS:          0
cpu2_L1I COHERENCE WRITE-HIT OTHER-SHARER EVENTS:          0
cpu2_L1D COHERENCE INVALIDATIONS:          0
cpu2_L1D COHERENCE WRITE-HIT OTHER-SHARER EVENTS:          0
cpu2->cpu2_ITLB TOTAL        ACCESS:  145460286 HIT:  145460286 MISS:          0 MSHR_MERGE:          0
cpu2->cpu2_ITLB LOAD         ACCESS:  145460286 HIT:  145460286 MISS:          0 MSHR_MERGE:          0
cpu2->cpu2_ITLB RFO          ACCESS:          0 HIT:          0 MISS:          0 MSHR_MERGE:          0
cpu2->cpu2_ITLB PREFETCH     ACCESS:          0 HIT:          0 MISS:          0 MSHR_MERGE:          0
cpu2->cpu2_ITLB WRITE        ACCESS:          0 HIT:          0 MISS:          0 MSHR_MERGE:          0
cpu2->cpu2_ITLB TRANSLATION  ACCESS:          0 HIT:          0 MISS:          0 MSHR_MERGE:          0
cpu2->cpu2_ITLB PREFETCH REQUESTED:          0 ISSUED:          0 USEFUL:          0 USELESS:          0
cpu2->cpu2_ITLB AVERAGE MISS LATENCY: - cycles
cpu2_ITLB COHERENCE INVALIDATIONS:          0
cpu2_ITLB COHERENCE WRITE-HIT OTHER-SHARER EVENTS:          0
cpu2_DTLB COHERENCE INVALIDATIONS:          0
cpu2_DTLB COHERENCE WRITE-HIT OTHER-SHARER EVENTS:          0
cpu1->cpu1_STLB TOTAL        ACCESS:    2229945 HIT:    2032874 MISS:     197071 MSHR_MERGE:          0
cpu1->cpu1_STLB LOAD         ACCESS:    2229945 HIT:    2032874 MISS:     197071 MSHR_MERGE:          0
cpu1->cpu1_STLB RFO          ACCESS:          0 HIT:          0 MISS:          0 MSHR_MERGE:          0
cpu1->cpu1_STLB PREFETCH     ACCESS:          0 HIT:          0 MISS:          0 MSHR_MERGE:          0
cpu1->cpu1_STLB WRITE        ACCESS:          0 HIT:          0 MISS:          0 MSHR_MERGE:          0
cpu1->cpu1_STLB TRANSLATION  ACCESS:          0 HIT:          0 MISS:          0 MSHR_MERGE:          0
cpu1->cpu1_STLB PREFETCH REQUESTED:          0 ISSUED:          0 USEFUL:          0 USELESS:          0
cpu1->cpu1_STLB AVERAGE MISS LATENCY: 522 cycles
cpu1_STLB COHERENCE INVALIDATIONS:          0
cpu1_STLB COHERENCE WRITE-HIT OTHER-SHARER EVENTS:          0
cpu1->cpu1_L2C TOTAL        ACCESS:    2362486 HIT:     417952 MISS:    1944534 MSHR_MERGE:          0
cpu1->cpu1_L2C LOAD         ACCESS:    1971973 HIT:     416766 MISS:    1555207 MSHR_MERGE:          0
cpu1->cpu1_L2C RFO          ACCESS:          0 HIT:          0 MISS:          0 MSHR_MERGE:          0
cpu1->cpu1_L2C PREFETCH     ACCESS:          0 HIT:          0 MISS:          0 MSHR_MERGE:          0
cpu1->cpu1_L2C WRITE        ACCESS:          0 HIT:          0 MISS:          0 MSHR_MERGE:          0
cpu1->cpu1_L2C TRANSLATION  ACCESS:     390513 HIT:       1186 MISS:     389327 MSHR_MERGE:          0
cpu1->cpu1_L2C PREFETCH REQUESTED:          0 ISSUED:          0 USEFUL:          0 USELESS:          0
cpu1->cpu1_L2C AVERAGE MISS LATENCY: 200.5 cycles
cpu1_L2C COHERENCE INVALIDATIONS:          0
cpu1_L2C COHERENCE WRITE-HIT OTHER-SHARER EVENTS:          0
cpu1->cpu1_L1I TOTAL        ACCESS:   33423964 HIT:   31297801 MISS:    2126163 MSHR_MERGE:     154190
cpu1->cpu1_L1I LOAD         ACCESS:   33423964 HIT:   31297801 MISS:    2126163 MSHR_MERGE:     154190
cpu1->cpu1_L1I RFO          ACCESS:          0 HIT:          0 MISS:          0 MSHR_MERGE:          0
cpu1->cpu1_L1I PREFETCH     ACCESS:          0 HIT:          0 MISS:          0 MSHR_MERGE:          0
cpu1->cpu1_L1I WRITE        ACCESS:          0 HIT:          0 MISS:          0 MSHR_MERGE:          0
cpu1->cpu1_L1I TRANSLATION  ACCESS:          0 HIT:          0 MISS:          0 MSHR_MERGE:          0
cpu1->cpu1_L1I PREFETCH REQUESTED:          0 ISSUED:          0 USEFUL:          0 USELESS:          0
cpu1->cpu1_L1I AVERAGE MISS LATENCY: 156.1 cycles
cpu1_L1I COHERENCE INVALIDATIONS:          0
cpu1_L1I COHERENCE WRITE-HIT OTHER-SHARER EVENTS:          0
cpu1->cpu1_L1D TOTAL        ACCESS:     394279 HIT:       3766 MISS:     390513 MSHR_MERGE:          0
cpu1->cpu1_L1D LOAD         ACCESS:          0 HIT:          0 MISS:          0 MSHR_MERGE:          0
cpu1->cpu1_L1D RFO          ACCESS:          0 HIT:          0 MISS:          0 MSHR_MERGE:          0
cpu1->cpu1_L1D PREFETCH     ACCESS:          0 HIT:          0 MISS:          0 MSHR_MERGE:          0
cpu1->cpu1_L1D WRITE        ACCESS:          0 HIT:          0 MISS:          0 MSHR_MERGE:          0
cpu1->cpu1_L1D TRANSLATION  ACCESS:     394279 HIT:       3766 MISS:     390513 MSHR_MERGE:          0
cpu1->cpu1_L1D PREFETCH REQUESTED:          0 ISSUED:          0 USEFUL:          0 USELESS:          0
cpu1->cpu1_L1D AVERAGE MISS LATENCY: 257.4 cycles
cpu1_L1D COHERENCE INVALIDATIONS:          0
cpu1_L1D COHERENCE WRITE-HIT OTHER-SHARER EVENTS:          0
cpu1->cpu1_ITLB TOTAL        ACCESS:   32886194 HIT:   30605237 MISS:    2280957 MSHR_MERGE:      51012
cpu1->cpu1_ITLB LOAD         ACCESS:   32886194 HIT:   30605237 MISS:    2280957 MSHR_MERGE:      51012
cpu1->cpu1_ITLB RFO          ACCESS:          0 HIT:          0 MISS:          0 MSHR_MERGE:          0
cpu1->cpu1_ITLB PREFETCH     ACCESS:          0 HIT:          0 MISS:          0 MSHR_MERGE:          0
cpu1->cpu1_ITLB WRITE        ACCESS:          0 HIT:          0 MISS:          0 MSHR_MERGE:          0
cpu1->cpu1_ITLB TRANSLATION  ACCESS:          0 HIT:          0 MISS:          0 MSHR_MERGE:          0
cpu1->cpu1_ITLB PREFETCH REQUESTED:          0 ISSUED:          0 USEFUL:          0 USELESS:          0
cpu1->cpu1_ITLB AVERAGE MISS LATENCY: 50.22 cycles
cpu1_ITLB COHERENCE INVALIDATIONS:          0
cpu1_ITLB COHERENCE WRITE-HIT OTHER-SHARER EVENTS:          0
cpu1_DTLB COHERENCE INVALIDATIONS:          0
cpu1_DTLB COHERENCE WRITE-HIT OTHER-SHARER EVENTS:          0
cpu0->cpu0_STLB TOTAL        ACCESS:     297795 HIT:     297795 MISS:          0 MSHR_MERGE:          0
cpu0->cpu0_STLB LOAD         ACCESS:     297795 HIT:     297795 MISS:          0 MSHR_MERGE:          0
cpu0->cpu0_STLB RFO          ACCESS:          0 HIT:          0 MISS:          0 MSHR_MERGE:          0
cpu0->cpu0_STLB PREFETCH     ACCESS:          0 HIT:          0 MISS:          0 MSHR_MERGE:          0
cpu0->cpu0_STLB WRITE        ACCESS:          0 HIT:          0 MISS:          0 MSHR_MERGE:          0
cpu0->cpu0_STLB TRANSLATION  ACCESS:          0 HIT:          0 MISS:          0 MSHR_MERGE:          0
cpu0->cpu0_STLB PREFETCH REQUESTED:          0 ISSUED:          0 USEFUL:          0 USELESS:          0
cpu0->cpu0_STLB AVERAGE MISS LATENCY: - cycles
cpu0_STLB COHERENCE INVALIDATIONS:          0
cpu0_STLB COHERENCE WRITE-HIT OTHER-SHARER EVENTS:          0
cpu0->cpu0_L2C TOTAL        ACCESS:    9514515 HIT:    4614294 MISS:    4900221 MSHR_MERGE:          0
cpu0->cpu0_L2C LOAD         ACCESS:    1503915 HIT:     507341 MISS:     996574 MSHR_MERGE:          0
cpu0->cpu0_L2C RFO          ACCESS:    3974590 HIT:      70943 MISS:    3903647 MSHR_MERGE:          0
cpu0->cpu0_L2C PREFETCH     ACCESS:          0 HIT:          0 MISS:          0 MSHR_MERGE:          0
cpu0->cpu0_L2C WRITE        ACCESS:    4036010 HIT:    4036010 MISS:          0 MSHR_MERGE:          0
cpu0->cpu0_L2C TRANSLATION  ACCESS:          0 HIT:          0 MISS:          0 MSHR_MERGE:          0
cpu0->cpu0_L2C PREFETCH REQUESTED:          0 ISSUED:          0 USEFUL:          0 USELESS:          0
cpu0->cpu0_L2C AVERAGE MISS LATENCY: 71.67 cycles
cpu0_L2C COHERENCE INVALIDATIONS:          0
cpu0_L2C COHERENCE WRITE-HIT OTHER-SHARER EVENTS:          0
cpu0->cpu0_L1I TOTAL        ACCESS:  133422049 HIT:  133130425 MISS:     291624 MSHR_MERGE:      75861
cpu0->cpu0_L1I LOAD         ACCESS:  133422049 HIT:  133130425 MISS:     291624 MSHR_MERGE:      75861
cpu0->cpu0_L1I RFO          ACCESS:          0 HIT:          0 MISS:          0 MSHR_MERGE:          0
cpu0->cpu0_L1I PREFETCH     ACCESS:          0 HIT:          0 MISS:          0 MSHR_MERGE:          0
cpu0->cpu0_L1I WRITE        ACCESS:          0 HIT:          0 MISS:          0 MSHR_MERGE:          0
cpu0->cpu0_L1I TRANSLATION  ACCESS:          0 HIT:          0 MISS:          0 MSHR_MERGE:          0
cpu0->cpu0_L1I PREFETCH REQUESTED:          0 ISSUED:          0 USEFUL:          0 USELESS:          0
cpu0->cpu0_L1I AVERAGE MISS LATENCY: 146.5 cycles
cpu0_L1I COHERENCE INVALIDATIONS:          0
cpu0_L1I COHERENCE WRITE-HIT OTHER-SHARER EVENTS:          0
cpu0->cpu0_L1D TOTAL        ACCESS:  159287394 HIT:  141457381 MISS:   17830013 MSHR_MERGE:   12561910
cpu0->cpu0_L1D LOAD         ACCESS:   15372826 HIT:   13352376 MISS:    2020450 MSHR_MERGE:     732298
cpu0->cpu0_L1D RFO          ACCESS:          0 HIT:          0 MISS:          0 MSHR_MERGE:          0
cpu0->cpu0_L1D PREFETCH     ACCESS:          0 HIT:          0 MISS:          0 MSHR_MERGE:          0
cpu0->cpu0_L1D WRITE        ACCESS:  143914568 HIT:  128105005 MISS:   15809563 MSHR_MERGE:   11829612
cpu0->cpu0_L1D TRANSLATION  ACCESS:          0 HIT:          0 MISS:          0 MSHR_MERGE:          0
cpu0->cpu0_L1D PREFETCH REQUESTED:          0 ISSUED:          0 USEFUL:          0 USELESS:          0
cpu0->cpu0_L1D AVERAGE MISS LATENCY: 68.88 cycles
cpu0_L1D COHERENCE INVALIDATIONS:          0
cpu0_L1D COHERENCE WRITE-HIT OTHER-SHARER EVENTS:          0
cpu0->cpu0_ITLB TOTAL        ACCESS:  111084327 HIT:  111039522 MISS:      44805 MSHR_MERGE:      17616
cpu0->cpu0_ITLB LOAD         ACCESS:  111084327 HIT:  111039522 MISS:      44805 MSHR_MERGE:      17616
cpu0->cpu0_ITLB RFO          ACCESS:          0 HIT:          0 MISS:          0 MSHR_MERGE:          0
cpu0->cpu0_ITLB PREFETCH     ACCESS:          0 HIT:          0 MISS:          0 MSHR_MERGE:          0
cpu0->cpu0_ITLB WRITE        ACCESS:          0 HIT:          0 MISS:          0 MSHR_MERGE:          0
cpu0->cpu0_ITLB TRANSLATION  ACCESS:          0 HIT:          0 MISS:          0 MSHR_MERGE:          0
cpu0->cpu0_ITLB PREFETCH REQUESTED:          0 ISSUED:          0 USEFUL:          0 USELESS:          0
cpu0->cpu0_ITLB AVERAGE MISS LATENCY: 4.006 cycles
cpu0_ITLB COHERENCE INVALIDATIONS:          0
cpu0_ITLB COHERENCE WRITE-HIT OTHER-SHARER EVENTS:          0
cpu0->cpu0_DTLB TOTAL        ACCESS:  132561369 HIT:  132215053 MISS:     346316 MSHR_MERGE:      75710
cpu0->cpu0_DTLB LOAD         ACCESS:  132561369 HIT:  132215053 MISS:     346316 MSHR_MERGE:      75710
cpu0->cpu0_DTLB RFO          ACCESS:          0 HIT:          0 MISS:          0 MSHR_MERGE:          0
cpu0->cpu0_DTLB PREFETCH     ACCESS:          0 HIT:          0 MISS:          0 MSHR_MERGE:          0
cpu0->cpu0_DTLB WRITE        ACCESS:          0 HIT:          0 MISS:          0 MSHR_MERGE:          0
cpu0->cpu0_DTLB TRANSLATION  ACCESS:          0 HIT:          0 MISS:          0 MSHR_MERGE:          0
cpu0->cpu0_DTLB PREFETCH REQUESTED:          0 ISSUED:          0 USEFUL:          0 USELESS:          0
cpu0->cpu0_DTLB AVERAGE MISS LATENCY: 4 cycles
cpu0_DTLB COHERENCE INVALIDATIONS:          0
cpu0_DTLB COHERENCE WRITE-HIT OTHER-SHARER EVENTS:          0
cpu0->LLC TOTAL        ACCESS:    8848315 HIT:    7073160 MISS:    1775155 MSHR_MERGE:      45559
cpu0->LLC LOAD         ACCESS:     996574 HIT:     668884 MISS:     327690 MSHR_MERGE:      42285
cpu0->LLC RFO          ACCESS:    3903647 HIT:    3096443 MISS:     807204 MSHR_MERGE:       3274
cpu0->LLC PREFETCH     ACCESS:          0 HIT:          0 MISS:          0 MSHR_MERGE:          0
cpu0->LLC WRITE        ACCESS:    3948094 HIT:    3307833 MISS:     640261 MSHR_MERGE:          0
cpu0->LLC TRANSLATION  ACCESS:          0 HIT:          0 MISS:          0 MSHR_MERGE:          0
cpu0->LLC PREFETCH REQUESTED:          0 ISSUED:          0 USEFUL:          0 USELESS:          0
cpu0->LLC AVERAGE MISS LATENCY: 710.8 cycles
cpu1->LLC TOTAL        ACCESS:    1944534 HIT:     433421 MISS:    1511113 MSHR_MERGE:          8
cpu1->LLC LOAD         ACCESS:    1555207 HIT:     433276 MISS:    1121931 MSHR_MERGE:          8
cpu1->LLC RFO          ACCESS:          0 HIT:          0 MISS:          0 MSHR_MERGE:          0
cpu1->LLC PREFETCH     ACCESS:          0 HIT:          0 MISS:          0 MSHR_MERGE:          0
cpu1->LLC WRITE        ACCESS:          0 HIT:          0 MISS:          0 MSHR_MERGE:          0
cpu1->LLC TRANSLATION  ACCESS:     389327 HIT:        145 MISS:     389182 MSHR_MERGE:          0
cpu1->LLC PREFETCH REQUESTED:          0 ISSUED:          0 USEFUL:          0 USELESS:          0
cpu1->LLC AVERAGE MISS LATENCY: 778.8 cycles
cpu5->LLC TOTAL        ACCESS:    8849914 HIT:    7575658 MISS:    1274256 MSHR_MERGE:     119396
cpu5->LLC LOAD         ACCESS:     996569 HIT:     722377 MISS:     274192 MSHR_MERGE:     105320
cpu5->LLC RFO          ACCESS:    3904512 HIT:    3293418 MISS:     611094 MSHR_MERGE:      14076
cpu5->LLC PREFETCH     ACCESS:          0 HIT:          0 MISS:          0 MSHR_MERGE:          0
cpu5->LLC WRITE        ACCESS:    3948833 HIT:    3559863 MISS:     388970 MSHR_MERGE:          0
cpu5->LLC TRANSLATION  ACCESS:          0 HIT:          0 MISS:          0 MSHR_MERGE:          0
cpu5->LLC PREFETCH REQUESTED:          0 ISSUED:          0 USEFUL:          0 USELESS:          0
cpu5->LLC AVERAGE MISS LATENCY: 957.9 cycles
cpu6->LLC TOTAL        ACCESS:    1937459 HIT:     436732 MISS:    1500727 MSHR_MERGE:          5
cpu6->LLC LOAD         ACCESS:    1549856 HIT:     436493 MISS:    1113363 MSHR_MERGE:          5
cpu6->LLC RFO          ACCESS:          0 HIT:          0 MISS:          0 MSHR_MERGE:          0
cpu6->LLC PREFETCH     ACCESS:          0 HIT:          0 MISS:          0 MSHR_MERGE:          0
cpu6->LLC WRITE        ACCESS:          0 HIT:          0 MISS:          0 MSHR_MERGE:          0
cpu6->LLC TRANSLATION  ACCESS:     387603 HIT:        239 MISS:     387364 MSHR_MERGE:          0
cpu6->LLC PREFETCH REQUESTED:          0 ISSUED:          0 USEFUL:          0 USELESS:          0
cpu6->LLC AVERAGE MISS LATENCY: 784.2 cycles
LLC COHERENCE INVALIDATIONS:    7066354
LLC COHERENCE WRITE-HIT OTHER-SHARER EVENTS:    6867490

DRAM Statistics

Channel 0 RQ ROW_BUFFER_HIT:     106014
  ROW_BUFFER_MISS:    4753135
  AVG DBUS CONGESTED CYCLE: 6.621
Channel 0 WQ ROW_BUFFER_HIT:     257959
  ROW_BUFFER_MISS:     917007
  FULL:        823
Channel 0 REFRESHES ISSUED:      26366

VMEM ALIASED FILLS (cross-CPU shared-page hits): 304457
