[VMEM] WARNING: physical memory size is smaller than virtual memory size.

*** ChampSim Multicore Out-of-Order Simulator ***
Warmup Instructions: 50000000
Simulation Instructions: 100000000
Number of CPUs: 8
Page size: 4096

Off-chip DRAM Size: 16 GiB Channels: 1 Width: 64-bit Data Rate: 3205 MT/s
*** Reached end of trace: (2, "traces/canneal_big3.champsimtrace")
*** Reached end of trace: (6, "traces/canneal_big3.champsimtrace")
*** Reached end of trace: (5, "traces/canneal_big2.champsimtrace")
*** Reached end of trace: (1, "traces/canneal_big2.champsimtrace")
*** Reached end of trace: (7, "traces/canneal_big0.champsimtrace")
*** Reached end of trace: (3, "traces/canneal_big0.champsimtrace")
*** Reached end of trace: (2, "traces/canneal_big3.champsimtrace")
*** Reached end of trace: (6, "traces/canneal_big3.champsimtrace")
Heartbeat CPU 2 instructions: 10000001 cycles: 2503650 heartbeat IPC: 3.994 cumulative IPC: 3.994 (Simulation time: 00 hr 05 min 47 sec)
Heartbeat CPU 6 instructions: 10000001 cycles: 2503657 heartbeat IPC: 3.994 cumulative IPC: 3.994 (Simulation time: 00 hr 05 min 47 sec)
*** Reached end of trace: (5, "traces/canneal_big2.champsimtrace")
*** Reached end of trace: (1, "traces/canneal_big2.champsimtrace")
Heartbeat CPU 5 instructions: 10000001 cycles: 2503805 heartbeat IPC: 3.994 cumulative IPC: 3.994 (Simulation time: 00 hr 05 min 47 sec)
Heartbeat CPU 1 instructions: 10000001 cycles: 2503810 heartbeat IPC: 3.994 cumulative IPC: 3.994 (Simulation time: 00 hr 05 min 47 sec)
*** Reached end of trace: (2, "traces/canneal_big3.champsimtrace")
*** Reached end of trace: (6, "traces/canneal_big3.champsimtrace")
*** Reached end of trace: (5, "traces/canneal_big2.champsimtrace")
*** Reached end of trace: (1, "traces/canneal_big2.champsimtrace")
*** Reached end of trace: (7, "traces/canneal_big0.champsimtrace")
Heartbeat CPU 7 instructions: 10000003 cycles: 3983730 heartbeat IPC: 2.51 cumulative IPC: 2.51 (Simulation time: 00 hr 09 min 29 sec)
*** Reached end of trace: (3, "traces/canneal_big0.champsimtrace")
Heartbeat CPU 3 instructions: 10000003 cycles: 3986357 heartbeat IPC: 2.509 cumulative IPC: 2.509 (Simulation time: 00 hr 09 min 30 sec)
*** Reached end of trace: (0, "traces/canneal_big1.champsimtrace")
*** Reached end of trace: (4, "traces/canneal_big1.champsimtrace")
*** Reached end of trace: (2, "traces/canneal_big3.champsimtrace")
*** Reached end of trace: (6, "traces/canneal_big3.champsimtrace")
Heartbeat CPU 2 instructions: 20000001 cycles: 5003650 heartbeat IPC: 4 cumulative IPC: 3.997 (Simulation time: 00 hr 12 min 06 sec)
Heartbeat CPU 6 instructions: 20000001 cycles: 5003657 heartbeat IPC: 4 cumulative IPC: 3.997 (Simulation time: 00 hr 12 min 06 sec)
*** Reached end of trace: (5, "traces/canneal_big2.champsimtrace")
*** Reached end of trace: (1, "traces/canneal_big2.champsimtrace")
Heartbeat CPU 5 instructions: 20000001 cycles: 5003805 heartbeat IPC: 4 cumulative IPC: 3.997 (Simulation time: 00 hr 12 min 06 sec)
Heartbeat CPU 1 instructions: 20000001 cycles: 5003810 heartbeat IPC: 4 cumulative IPC: 3.997 (Simulation time: 00 hr 12 min 06 sec)
*** Reached end of trace: (7, "traces/canneal_big0.champsimtrace")
*** Reached end of trace: (3, "traces/canneal_big0.champsimtrace")
*** Reached end of trace: (2, "traces/canneal_big3.champsimtrace")
*** Reached end of trace: (6, "traces/canneal_big3.champsimtrace")
*** Reached end of trace: (5, "traces/canneal_big2.champsimtrace")
*** Reached end of trace: (1, "traces/canneal_big2.champsimtrace")
*** Reached end of trace: (0, "traces/canneal_big1.champsimtrace")
Heartbeat CPU 0 instructions: 10000002 cycles: 7294506 heartbeat IPC: 1.371 cumulative IPC: 1.371 (Simulation time: 00 hr 17 min 39 sec)
*** Reached end of trace: (4, "traces/canneal_big1.champsimtrace")
Heartbeat CPU 4 instructions: 10000002 cycles: 7295594 heartbeat IPC: 1.371 cumulative IPC: 1.371 (Simulation time: 00 hr 17 min 39 sec)
*** Reached end of trace: (2, "traces/canneal_big3.champsimtrace")
*** Reached end of trace: (6, "traces/canneal_big3.champsimtrace")
Heartbeat CPU 2 instructions: 30000001 cycles: 7503650 heartbeat IPC: 4 cumulative IPC: 3.998 (Simulation time: 00 hr 18 min 08 sec)
Heartbeat CPU 6 instructions: 30000001 cycles: 7503657 heartbeat IPC: 4 cumulative IPC: 3.998 (Simulation time: 00 hr 18 min 08 sec)
*** Reached end of trace: (5, "traces/canneal_big2.champsimtrace")
*** Reached end of trace: (1, "traces/canneal_big2.champsimtrace")
Heartbeat CPU 5 instructions: 30000001 cycles: 7503805 heartbeat IPC: 4 cumulative IPC: 3.998 (Simulation time: 00 hr 18 min 08 sec)
Heartbeat CPU 1 instructions: 30000001 cycles: 7503810 heartbeat IPC: 4 cumulative IPC: 3.998 (Simulation time: 00 hr 18 min 08 sec)
*** Reached end of trace: (7, "traces/canneal_big0.champsimtrace")
Heartbeat CPU 7 instructions: 20000006 cycles: 7824377 heartbeat IPC: 2.604 cumulative IPC: 2.556 (Simulation time: 00 hr 18 min 53 sec)
*** Reached end of trace: (3, "traces/canneal_big0.champsimtrace")
Heartbeat CPU 3 instructions: 20000006 cycles: 7829910 heartbeat IPC: 2.602 cumulative IPC: 2.554 (Simulation time: 00 hr 18 min 54 sec)
*** Reached end of trace: (2, "traces/canneal_big3.champsimtrace")
*** Reached end of trace: (6, "traces/canneal_big3.champsimtrace")
*** Reached end of trace: (5, "traces/canneal_big2.champsimtrace")
*** Reached end of trace: (1, "traces/canneal_big2.champsimtrace")
*** Reached end of trace: (7, "traces/canneal_big0.champsimtrace")
*** Reached end of trace: (3, "traces/canneal_big0.champsimtrace")
*** Reached end of trace: (2, "traces/canneal_big3.champsimtrace")
*** Reached end of trace: (6, "traces/canneal_big3.champsimtrace")
Heartbeat CPU 2 instructions: 40000001 cycles: 10003650 heartbeat IPC: 4 cumulative IPC: 3.999 (Simulation time: 00 hr 24 min 12 sec)
Heartbeat CPU 6 instructions: 40000001 cycles: 10003657 heartbeat IPC: 4 cumulative IPC: 3.999 (Simulation time: 00 hr 24 min 12 sec)
*** Reached end of trace: (5, "traces/canneal_big2.champsimtrace")
*** Reached end of trace: (1, "traces/canneal_big2.champsimtrace")
Heartbeat CPU 5 instructions: 40000001 cycles: 10003805 heartbeat IPC: 4 cumulative IPC: 3.998 (Simulation time: 00 hr 24 min 12 sec)
Heartbeat CPU 1 instructions: 40000001 cycles: 10003810 heartbeat IPC: 4 cumulative IPC: 3.998 (Simulation time: 00 hr 24 min 12 sec)
*** Reached end of trace: (0, "traces/canneal_big1.champsimtrace")
*** Reached end of trace: (4, "traces/canneal_big1.champsimtrace")
*** Reached end of trace: (2, "traces/canneal_big3.champsimtrace")
*** Reached end of trace: (6, "traces/canneal_big3.champsimtrace")
*** Reached end of trace: (5, "traces/canneal_big2.champsimtrace")
*** Reached end of trace: (1, "traces/canneal_big2.champsimtrace")
*** Reached end of trace: (7, "traces/canneal_big0.champsimtrace")
Heartbeat CPU 7 instructions: 30000009 cycles: 11664883 heartbeat IPC: 2.604 cumulative IPC: 2.572 (Simulation time: 00 hr 28 min 14 sec)
*** Reached end of trace: (3, "traces/canneal_big0.champsimtrace")
Heartbeat CPU 3 instructions: 30000009 cycles: 11673913 heartbeat IPC: 2.601 cumulative IPC: 2.57 (Simulation time: 00 hr 28 min 15 sec)
*** Reached end of trace: (2, "traces/canneal_big3.champsimtrace")
*** Reached end of trace: (6, "traces/canneal_big3.champsimtrace")
Heartbeat CPU 2 instructions: 50000001 cycles: 12503650 heartbeat IPC: 4 cumulative IPC: 3.999 (Simulation time: 00 hr 30 min 19 sec)
Warmup finished CPU 2 instructions: 50000001 cycles: 12503650 cumulative IPC: 3.999 (Simulation time: 00 hr 30 min 19 sec)
Heartbeat CPU 6 instructions: 50000001 cycles: 12503657 heartbeat IPC: 4 cumulative IPC: 3.999 (Simulation time: 00 hr 30 min 19 sec)
Warmup finished CPU 6 instructions: 50000001 cycles: 12503657 cumulative IPC: 3.999 (Simulation time: 00 hr 30 min 19 sec)
*** Reached end of trace: (5, "traces/canneal_big2.champsimtrace")
*** Reached end of trace: (1, "traces/canneal_big2.champsimtrace")
Heartbeat CPU 5 instructions: 50000001 cycles: 12503805 heartbeat IPC: 4 cumulative IPC: 3.999 (Simulation time: 00 hr 30 min 19 sec)
Warmup finished CPU 5 instructions: 50000001 cycles: 12503805 cumulative IPC: 3.999 (Simulation time: 00 hr 30 min 19 sec)
Heartbeat CPU 1 instructions: 50000001 cycles: 12503810 heartbeat IPC: 4 cumulative IPC: 3.999 (Simulation time: 00 hr 30 min 19 sec)
Warmup finished CPU 1 instructions: 50000001 cycles: 12503810 cumulative IPC: 3.999 (Simulation time: 00 hr 30 min 19 sec)
*** Reached end of trace: (0, "traces/canneal_big1.champsimtrace")
Heartbeat CPU 0 instructions: 20000004 cycles: 12980317 heartbeat IPC: 1.759 cumulative IPC: 1.541 (Simulation time: 00 hr 31 min 28 sec)
*** Reached end of trace: (4, "traces/canneal_big1.champsimtrace")
Heartbeat CPU 4 instructions: 20000004 cycles: 12986370 heartbeat IPC: 1.757 cumulative IPC: 1.54 (Simulation time: 00 hr 31 min 29 sec)
*** Reached end of trace: (7, "traces/canneal_big0.champsimtrace")
*** Reached end of trace: (3, "traces/canneal_big0.champsimtrace")
*** Reached end of trace: (2, "traces/canneal_big3.champsimtrace")
*** Reached end of trace: (6, "traces/canneal_big3.champsimtrace")
*** Reached end of trace: (5, "traces/canneal_big2.champsimtrace")
*** Reached end of trace: (1, "traces/canneal_big2.champsimtrace")
*** Reached end of trace: (2, "traces/canneal_big3.champsimtrace")
*** Reached end of trace: (6, "traces/canneal_big3.champsimtrace")
Heartbeat CPU 2 instructions: 60000001 cycles: 15003650 heartbeat IPC: 4 cumulative IPC: 3.999 (Simulation time: 00 hr 36 min 27 sec)
Heartbeat CPU 6 instructions: 60000001 cycles: 15003657 heartbeat IPC: 4 cumulative IPC: 3.999 (Simulation time: 00 hr 36 min 27 sec)
*** Reached end of trace: (5, "traces/canneal_big2.champsimtrace")
*** Reached end of trace: (1, "traces/canneal_big2.champsimtrace")
Heartbeat CPU 5 instructions: 60000001 cycles: 15003805 heartbeat IPC: 4 cumulative IPC: 3.999 (Simulation time: 00 hr 36 min 27 sec)
Heartbeat CPU 1 instructions: 60000001 cycles: 15003810 heartbeat IPC: 4 cumulative IPC: 3.999 (Simulation time: 00 hr 36 min 27 sec)
*** Reached end of trace: (7, "traces/canneal_big0.champsimtrace")
Heartbeat CPU 7 instructions: 40000012 cycles: 15505579 heartbeat IPC: 2.604 cumulative IPC: 2.58 (Simulation time: 00 hr 37 min 38 sec)
*** Reached end of trace: (3, "traces/canneal_big0.champsimtrace")
Heartbeat CPU 3 instructions: 40000012 cycles: 15518539 heartbeat IPC: 2.601 cumulative IPC: 2.578 (Simulation time: 00 hr 37 min 40 sec)
*** Reached end of trace: (0, "traces/canneal_big1.champsimtrace")
*** Reached end of trace: (4, "traces/canneal_big1.champsimtrace")
*** Reached end of trace: (2, "traces/canneal_big3.champsimtrace")
*** Reached end of trace: (6, "traces/canneal_big3.champsimtrace")
*** Reached end of trace: (5, "traces/canneal_big2.champsimtrace")
*** Reached end of trace: (1, "traces/canneal_big2.champsimtrace")
*** Reached end of trace: (7, "traces/canneal_big0.champsimtrace")
*** Reached end of trace: (3, "traces/canneal_big0.champsimtrace")
*** Reached end of trace: (2, "traces/canneal_big3.champsimtrace")
*** Reached end of trace: (6, "traces/canneal_big3.champsimtrace")
Heartbeat CPU 2 instructions: 70000001 cycles: 17503650 heartbeat IPC: 4 cumulative IPC: 3.999 (Simulation time: 00 hr 42 min 21 sec)
Heartbeat CPU 6 instructions: 70000001 cycles: 17503657 heartbeat IPC: 4 cumulative IPC: 3.999 (Simulation time: 00 hr 42 min 21 sec)
*** Reached end of trace: (5, "traces/canneal_big2.champsimtrace")
*** Reached end of trace: (1, "traces/canneal_big2.champsimtrace")
Heartbeat CPU 5 instructions: 70000001 cycles: 17503805 heartbeat IPC: 4 cumulative IPC: 3.999 (Simulation time: 00 hr 42 min 21 sec)
Heartbeat CPU 1 instructions: 70000001 cycles: 17503810 heartbeat IPC: 4 cumulative IPC: 3.999 (Simulation time: 00 hr 42 min 21 sec)
*** Reached end of trace: (0, "traces/canneal_big1.champsimtrace")
Heartbeat CPU 0 instructions: 30000004 cycles: 18665388 heartbeat IPC: 1.759 cumulative IPC: 1.607 (Simulation time: 00 hr 45 min 06 sec)
*** Reached end of trace: (4, "traces/canneal_big1.champsimtrace")
Heartbeat CPU 4 instructions: 30000004 cycles: 18681139 heartbeat IPC: 1.756 cumulative IPC: 1.606 (Simulation time: 00 hr 45 min 08 sec)
*** Reached end of trace: (2, "traces/canneal_big3.champsimtrace")
*** Reached end of trace: (6, "traces/canneal_big3.champsimtrace")
*** Reached end of trace: (5, "traces/canneal_big2.champsimtrace")
*** Reached end of trace: (1, "traces/canneal_big2.champsimtrace")
*** Reached end of trace: (7, "traces/canneal_big0.champsimtrace")
Warmup finished CPU 7 instructions: 50000000 cycles: 19346417 cumulative IPC: 2.584 (Simulation time: 00 hr 46 min 40 sec)
Heartbeat CPU 7 instructions: 50000015 cycles: 19346420 heartbeat IPC: 2.604 cumulative IPC: 2.584 (Simulation time: 00 hr 46 min 40 sec)
*** Reached end of trace: (3, "traces/canneal_big0.champsimtrace")
Warmup finished CPU 3 instructions: 50000000 cycles: 19363301 cumulative IPC: 2.582 (Simulation time: 00 hr 46 min 42 sec)
Heartbeat CPU 3 instructions: 50000015 cycles: 19363304 heartbeat IPC: 2.601 cumulative IPC: 2.582 (Simulation time: 00 hr 46 min 42 sec)
*** Reached end of trace: (2, "traces/canneal_big3.champsimtrace")
*** Reached end of trace: (6, "traces/canneal_big3.champsimtrace")
Heartbeat CPU 2 instructions: 80000001 cycles: 20003650 heartbeat IPC: 4 cumulative IPC: 3.999 (Simulation time: 00 hr 48 min 15 sec)
Heartbeat CPU 6 instructions: 80000001 cycles: 20003657 heartbeat IPC: 4 cumulative IPC: 3.999 (Simulation time: 00 hr 48 min 15 sec)
*** Reached end of trace: (5, "traces/canneal_big2.champsimtrace")
*** Reached end of trace: (1, "traces/canneal_big2.champsimtrace")
Heartbeat CPU 5 instructions: 80000001 cycles: 20003805 heartbeat IPC: 4 cumulative IPC: 3.999 (Simulation time: 00 hr 48 min 15 sec)
Heartbeat CPU 1 instructions: 80000001 cycles: 20003810 heartbeat IPC: 4 cumulative IPC: 3.999 (Simulation time: 00 hr 48 min 15 sec)
*** Reached end of trace: (2, "traces/canneal_big3.champsimtrace")
*** Reached end of trace: (6, "traces/canneal_big3.champsimtrace")
*** Reached end of trace: (5, "traces/canneal_big2.champsimtrace")
*** Reached end of trace: (1, "traces/canneal_big2.champsimtrace")
*** Reached end of trace: (7, "traces/canneal_big0.champsimtrace")
*** Reached end of trace: (3, "traces/canneal_big0.champsimtrace")
*** Reached end of trace: (0, "traces/canneal_big1.champsimtrace")
*** Reached end of trace: (4, "traces/canneal_big1.champsimtrace")
*** Reached end of trace: (2, "traces/canneal_big3.champsimtrace")
*** Reached end of trace: (6, "traces/canneal_big3.champsimtrace")
Heartbeat CPU 2 instructions: 90000001 cycles: 22503650 heartbeat IPC: 4 cumulative IPC: 3.999 (Simulation time: 00 hr 54 min 03 sec)
Heartbeat CPU 6 instructions: 90000001 cycles: 22503657 heartbeat IPC: 4 cumulative IPC: 3.999 (Simulation time: 00 hr 54 min 03 sec)
*** Reached end of trace: (5, "traces/canneal_big2.champsimtrace")
*** Reached end of trace: (1, "traces/canneal_big2.champsimtrace")
Heartbeat CPU 5 instructions: 90000001 cycles: 22503805 heartbeat IPC: 4 cumulative IPC: 3.999 (Simulation time: 00 hr 54 min 03 sec)
Heartbeat CPU 1 instructions: 90000001 cycles: 22503810 heartbeat IPC: 4 cumulative IPC: 3.999 (Simulation time: 00 hr 54 min 03 sec)
*** Reached end of trace: (7, "traces/canneal_big0.champsimtrace")
Heartbeat CPU 7 instructions: 60000018 cycles: 23186911 heartbeat IPC: 2.604 cumulative IPC: 2.588 (Simulation time: 00 hr 55 min 38 sec)
*** Reached end of trace: (3, "traces/canneal_big0.champsimtrace")
Heartbeat CPU 3 instructions: 60000018 cycles: 23208179 heartbeat IPC: 2.601 cumulative IPC: 2.585 (Simulation time: 00 hr 55 min 42 sec)
*** Reached end of trace: (2, "traces/canneal_big3.champsimtrace")
*** Reached end of trace: (6, "traces/canneal_big3.champsimtrace")
*** Reached end of trace: (5, "traces/canneal_big2.champsimtrace")
*** Reached end of trace: (1, "traces/canneal_big2.champsimtrace")
*** Reached end of trace: (0, "traces/canneal_big1.champsimtrace")
Heartbeat CPU 0 instructions: 40000006 cycles: 24349670 heartbeat IPC: 1.759 cumulative IPC: 1.643 (Simulation time: 00 hr 58 min 23 sec)
*** Reached end of trace: (4, "traces/canneal_big1.champsimtrace")
Heartbeat CPU 4 instructions: 40000006 cycles: 24379855 heartbeat IPC: 1.755 cumulative IPC: 1.641 (Simulation time: 00 hr 58 min 27 sec)
*** Reached end of trace: (2, "traces/canneal_big3.champsimtrace")
*** Reached end of trace: (6, "traces/canneal_big3.champsimtrace")
Heartbeat CPU 2 instructions: 100000001 cycles: 25003650 heartbeat IPC: 4 cumulative IPC: 3.999 (Simulation time: 00 hr 59 min 53 sec)
Heartbeat CPU 6 instructions: 100000001 cycles: 25003657 heartbeat IPC: 4 cumulative IPC: 3.999 (Simulation time: 00 hr 59 min 53 sec)
*** Reached end of trace: (5, "traces/canneal_big2.champsimtrace")
*** Reached end of trace: (1, "traces/canneal_big2.champsimtrace")
Heartbeat CPU 5 instructions: 100000001 cycles: 25003805 heartbeat IPC: 4 cumulative IPC: 3.999 (Simulation time: 00 hr 59 min 53 sec)
Heartbeat CPU 1 instructions: 100000001 cycles: 25003810 heartbeat IPC: 4 cumulative IPC: 3.999 (Simulation time: 00 hr 59 min 53 sec)
*** Reached end of trace: (7, "traces/canneal_big0.champsimtrace")
*** Reached end of trace: (3, "traces/canneal_big0.champsimtrace")
*** Reached end of trace: (2, "traces/canneal_big3.champsimtrace")
*** Reached end of trace: (6, "traces/canneal_big3.champsimtrace")
*** Reached end of trace: (5, "traces/canneal_big2.champsimtrace")
*** Reached end of trace: (1, "traces/canneal_big2.champsimtrace")
*** Reached end of trace: (7, "traces/canneal_big0.champsimtrace")
Heartbeat CPU 7 instructions: 70000021 cycles: 27027502 heartbeat IPC: 2.604 cumulative IPC: 2.59 (Simulation time: 01 hr 04 min 37 sec)
*** Reached end of trace: (3, "traces/canneal_big0.champsimtrace")
Heartbeat CPU 3 instructions: 70000021 cycles: 27053336 heartbeat IPC: 2.601 cumulative IPC: 2.587 (Simulation time: 01 hr 04 min 41 sec)
*** Reached end of trace: (0, "traces/canneal_big1.champsimtrace")
*** Reached end of trace: (4, "traces/canneal_big1.champsimtrace")
*** Reached end of trace: (2, "traces/canneal_big3.champsimtrace")
*** Reached end of trace: (6, "traces/canneal_big3.champsimtrace")
Heartbeat CPU 2 instructions: 110000001 cycles: 27503650 heartbeat IPC: 4 cumulative IPC: 3.999 (Simulation time: 01 hr 05 min 48 sec)
Heartbeat CPU 6 instructions: 110000001 cycles: 27503657 heartbeat IPC: 4 cumulative IPC: 3.999 (Simulation time: 01 hr 05 min 48 sec)
*** Reached end of trace: (5, "traces/canneal_big2.champsimtrace")
*** Reached end of trace: (1, "traces/canneal_big2.champsimtrace")
Heartbeat CPU 5 instructions: 110000001 cycles: 27503805 heartbeat IPC: 4 cumulative IPC: 3.999 (Simulation time: 01 hr 05 min 48 sec)
Heartbeat CPU 1 instructions: 110000001 cycles: 27503810 heartbeat IPC: 4 cumulative IPC: 3.999 (Simulation time: 01 hr 05 min 48 sec)
*** Reached end of trace: (2, "traces/canneal_big3.champsimtrace")
*** Reached end of trace: (6, "traces/canneal_big3.champsimtrace")
*** Reached end of trace: (5, "traces/canneal_big2.champsimtrace")
*** Reached end of trace: (1, "traces/canneal_big2.champsimtrace")
*** Reached end of trace: (7, "traces/canneal_big0.champsimtrace")
*** Reached end of trace: (3, "traces/canneal_big0.champsimtrace")
*** Reached end of trace: (2, "traces/canneal_big3.champsimtrace")
*** Reached end of trace: (6, "traces/canneal_big3.champsimtrace")
Heartbeat CPU 2 instructions: 120000001 cycles: 30003650 heartbeat IPC: 4 cumulative IPC: 4 (Simulation time: 01 hr 11 min 37 sec)
Heartbeat CPU 6 instructions: 120000001 cycles: 30003657 heartbeat IPC: 4 cumulative IPC: 4 (Simulation time: 01 hr 11 min 37 sec)
*** Reached end of trace: (5, "traces/canneal_big2.champsimtrace")
*** Reached end of trace: (1, "traces/canneal_big2.champsimtrace")
Heartbeat CPU 5 instructions: 120000001 cycles: 30003805 heartbeat IPC: 4 cumulative IPC: 3.999 (Simulation time: 01 hr 11 min 37 sec)
Heartbeat CPU 1 instructions: 120000001 cycles: 30003810 heartbeat IPC: 4 cumulative IPC: 3.999 (Simulation time: 01 hr 11 min 37 sec)
*** Reached end of trace: (0, "traces/canneal_big1.champsimtrace")
Warmup finished CPU 0 instructions: 50000000 cycles: 30032752 cumulative IPC: 1.665 (Simulation time: 01 hr 11 min 41 sec)
Heartbeat CPU 0 instructions: 50000008 cycles: 30032771 heartbeat IPC: 1.76 cumulative IPC: 1.665 (Simulation time: 01 hr 11 min 41 sec)
*** Reached end of trace: (4, "traces/canneal_big1.champsimtrace")
Warmup finished CPU 4 instructions: 50000000 cycles: 30080569 cumulative IPC: 1.662 (Simulation time: 01 hr 11 min 47 sec)
Warmup complete CPU 7 instructions: 78093484 cycles: 30080569 cumulative IPC: 2.596 (Simulation time: 01 hr 11 min 47 sec)
Warmup complete CPU 6 instructions: 120307649 cycles: 30080569 cumulative IPC: 4 (Simulation time: 01 hr 11 min 47 sec)
Warmup complete CPU 5 instructions: 120307057 cycles: 30080569 cumulative IPC: 3.999 (Simulation time: 01 hr 11 min 47 sec)
Warmup complete CPU 4 instructions: 50000000 cycles: 30080569 cumulative IPC: 1.662 (Simulation time: 01 hr 11 min 47 sec)
Warmup complete CPU 3 instructions: 78025004 cycles: 30080569 cumulative IPC: 2.594 (Simulation time: 01 hr 11 min 47 sec)
Warmup complete CPU 2 instructions: 120307677 cycles: 30080569 cumulative IPC: 4 (Simulation time: 01 hr 11 min 47 sec)
Warmup complete CPU 1 instructions: 120307037 cycles: 30080569 cumulative IPC: 3.999 (Simulation time: 01 hr 11 min 47 sec)
Warmup complete CPU 0 instructions: 50080118 cycles: 30080569 cumulative IPC: 1.665 (Simulation time: 01 hr 11 min 47 sec)
Heartbeat CPU 4 instructions: 50000008 cycles: 30081073 heartbeat IPC: 1.754 cumulative IPC: 0.01587 (Simulation time: 01 hr 11 min 47 sec)
*** Reached end of trace: (3, "traces/canneal_big0.champsimtrace")
Heartbeat CPU 3 instructions: 80000024 cycles: 30833614 heartbeat IPC: 2.645 cumulative IPC: 2.623 (Simulation time: 01 hr 13 min 32 sec)
*** Reached end of trace: (7, "traces/canneal_big0.champsimtrace")
Heartbeat CPU 7 instructions: 80000024 cycles: 30848239 heartbeat IPC: 2.617 cumulative IPC: 2.484 (Simulation time: 01 hr 13 min 34 sec)
*** Reached end of trace: (2, "traces/canneal_big3.champsimtrace")
*** Reached end of trace: (6, "traces/canneal_big3.champsimtrace")
*** Reached end of trace: (5, "traces/canneal_big2.champsimtrace")
*** Reached end of trace: (1, "traces/canneal_big2.champsimtrace")
*** Reached end of trace: (2, "traces/canneal_big3.champsimtrace")
*** Reached end of trace: (6, "traces/canneal_big3.champsimtrace")
Heartbeat CPU 2 instructions: 130000001 cycles: 32503650 heartbeat IPC: 4 cumulative IPC: 4 (Simulation time: 01 hr 17 min 21 sec)
Heartbeat CPU 6 instructions: 130000001 cycles: 32503657 heartbeat IPC: 4 cumulative IPC: 4 (Simulation time: 01 hr 17 min 21 sec)
*** Reached end of trace: (5, "traces/canneal_big2.champsimtrace")
*** Reached end of trace: (1, "traces/canneal_big2.champsimtrace")
Heartbeat CPU 5 instructions: 130000001 cycles: 32503805 heartbeat IPC: 4 cumulative IPC: 4 (Simulation time: 01 hr 17 min 21 sec)
Heartbeat CPU 1 instructions: 130000001 cycles: 32503810 heartbeat IPC: 4 cumulative IPC: 4 (Simulation time: 01 hr 17 min 21 sec)
*** Reached end of trace: (3, "traces/canneal_big0.champsimtrace")
*** Reached end of trace: (7, "traces/canneal_big0.champsimtrace")
*** Reached end of trace: (2, "traces/canneal_big3.champsimtrace")
*** Reached end of trace: (6, "traces/canneal_big3.champsimtrace")
*** Reached end of trace: (5, "traces/canneal_big2.champsimtrace")
*** Reached end of trace: (1, "traces/canneal_big2.champsimtrace")
*** Reached end of trace: (2, "traces/canneal_big3.champsimtrace")
*** Reached end of trace: (6, "traces/canneal_big3.champsimtrace")
Heartbeat CPU 2 instructions: 140000001 cycles: 35003650 heartbeat IPC: 4 cumulative IPC: 4 (Simulation time: 01 hr 23 min 02 sec)
Heartbeat CPU 6 instructions: 140000001 cycles: 35003657 heartbeat IPC: 4 cumulative IPC: 4 (Simulation time: 01 hr 23 min 02 sec)
*** Reached end of trace: (5, "traces/canneal_big2.champsimtrace")
*** Reached end of trace: (1, "traces/canneal_big2.champsimtrace")
Heartbeat CPU 5 instructions: 140000001 cycles: 35003805 heartbeat IPC: 4 cumulative IPC: 4 (Simulation time: 01 hr 23 min 02 sec)
Heartbeat CPU 1 instructions: 140000001 cycles: 35003810 heartbeat IPC: 4 cumulative IPC: 4 (Simulation time: 01 hr 23 min 02 sec)
*** Reached end of trace: (3, "traces/canneal_big0.champsimtrace")
Heartbeat CPU 3 instructions: 90000027 cycles: 35205084 heartbeat IPC: 2.288 cumulative IPC: 2.337 (Simulation time: 01 hr 23 min 30 sec)
*** Reached end of trace: (7, "traces/canneal_big0.champsimtrace")
Heartbeat CPU 7 instructions: 90000027 cycles: 35289055 heartbeat IPC: 2.252 cumulative IPC: 2.286 (Simulation time: 01 hr 23 min 41 sec)
*** Reached end of trace: (2, "traces/canneal_big3.champsimtrace")
*** Reached end of trace: (6, "traces/canneal_big3.champsimtrace")
*** Reached end of trace: (5, "traces/canneal_big2.champsimtrace")
*** Reached end of trace: (1, "traces/canneal_big2.champsimtrace")
*** Reached end of trace: (3, "traces/canneal_big0.champsimtrace")
*** Reached end of trace: (7, "traces/canneal_big0.champsimtrace")
*** Reached end of trace: (2, "traces/canneal_big3.champsimtrace")
*** Reached end of trace: (6, "traces/canneal_big3.champsimtrace")
Heartbeat CPU 2 instructions: 150000001 cycles: 37503650 heartbeat IPC: 4 cumulative IPC: 4 (Simulation time: 01 hr 28 min 45 sec)
Heartbeat CPU 6 instructions: 150000001 cycles: 37503657 heartbeat IPC: 4 cumulative IPC: 4 (Simulation time: 01 hr 28 min 45 sec)
*** Reached end of trace: (5, "traces/canneal_big2.champsimtrace")
*** Reached end of trace: (1, "traces/canneal_big2.champsimtrace")
Heartbeat CPU 5 instructions: 150000001 cycles: 37503805 heartbeat IPC: 4 cumulative IPC: 4 (Simulation time: 01 hr 28 min 45 sec)
Heartbeat CPU 1 instructions: 150000001 cycles: 37503810 heartbeat IPC: 4 cumulative IPC: 4 (Simulation time: 01 hr 28 min 45 sec)
*** Reached end of trace: (2, "traces/canneal_big3.champsimtrace")
*** Reached end of trace: (6, "traces/canneal_big3.champsimtrace")
*** Reached end of trace: (5, "traces/canneal_big2.champsimtrace")
*** Reached end of trace: (1, "traces/canneal_big2.champsimtrace")
*** Reached end of trace: (3, "traces/canneal_big0.champsimtrace")
Heartbeat CPU 3 instructions: 100000030 cycles: 39393330 heartbeat IPC: 2.388 cumulative IPC: 2.36 (Simulation time: 01 hr 33 min 03 sec)
*** Reached end of trace: (7, "traces/canneal_big0.champsimtrace")
Heartbeat CPU 7 instructions: 100000030 cycles: 39592186 heartbeat IPC: 2.324 cumulative IPC: 2.303 (Simulation time: 01 hr 33 min 31 sec)
*** Reached end of trace: (2, "traces/canneal_big3.champsimtrace")
*** Reached end of trace: (6, "traces/canneal_big3.champsimtrace")
Heartbeat CPU 2 instructions: 160000001 cycles: 40003650 heartbeat IPC: 4 cumulative IPC: 4 (Simulation time: 01 hr 34 min 28 sec)
Heartbeat CPU 6 instructions: 160000001 cycles: 40003657 heartbeat IPC: 4 cumulative IPC: 4 (Simulation time: 01 hr 34 min 28 sec)
*** Reached end of trace: (5, "traces/canneal_big2.champsimtrace")
*** Reached end of trace: (1, "traces/canneal_big2.champsimtrace")
Heartbeat CPU 5 instructions: 160000001 cycles: 40003805 heartbeat IPC: 4 cumulative IPC: 4 (Simulation time: 01 hr 34 min 28 sec)
Heartbeat CPU 1 instructions: 160000001 cycles: 40003810 heartbeat IPC: 4 cumulative IPC: 4 (Simulation time: 01 hr 34 min 28 sec)
*** Reached end of trace: (2, "traces/canneal_big3.champsimtrace")
*** Reached end of trace: (6, "traces/canneal_big3.champsimtrace")
*** Reached end of trace: (5, "traces/canneal_big2.champsimtrace")
*** Reached end of trace: (1, "traces/canneal_big2.champsimtrace")
*** Reached end of trace: (3, "traces/canneal_big0.champsimtrace")
*** Reached end of trace: (7, "traces/canneal_big0.champsimtrace")
*** Reached end of trace: (2, "traces/canneal_big3.champsimtrace")
*** Reached end of trace: (6, "traces/canneal_big3.champsimtrace")
Heartbeat CPU 2 instructions: 170000001 cycles: 42503650 heartbeat IPC: 4 cumulative IPC: 4 (Simulation time: 01 hr 40 min 13 sec)
Heartbeat CPU 6 instructions: 170000001 cycles: 42503657 heartbeat IPC: 4 cumulative IPC: 4 (Simulation time: 01 hr 40 min 13 sec)
*** Reached end of trace: (5, "traces/canneal_big2.champsimtrace")
*** Reached end of trace: (1, "traces/canneal_big2.champsimtrace")
Heartbeat CPU 5 instructions: 170000001 cycles: 42503805 heartbeat IPC: 4 cumulative IPC: 4 (Simulation time: 01 hr 40 min 13 sec)
Heartbeat CPU 1 instructions: 170000001 cycles: 42503810 heartbeat IPC: 4 cumulative IPC: 4 (Simulation time: 01 hr 40 min 13 sec)
*** Reached end of trace: (3, "traces/canneal_big0.champsimtrace")
Heartbeat CPU 3 instructions: 110000033 cycles: 43490360 heartbeat IPC: 2.441 cumulative IPC: 2.384 (Simulation time: 01 hr 42 min 28 sec)
*** Reached end of trace: (2, "traces/canneal_big3.champsimtrace")
*** Reached end of trace: (6, "traces/canneal_big3.champsimtrace")
*** Reached end of trace: (5, "traces/canneal_big2.champsimtrace")
*** Reached end of trace: (1, "traces/canneal_big2.champsimtrace")
*** Reached end of trace: (7, "traces/canneal_big0.champsimtrace")
Heartbeat CPU 7 instructions: 110000033 cycles: 43876142 heartbeat IPC: 2.334 cumulative IPC: 2.313 (Simulation time: 01 hr 43 min 21 sec)
*** Reached end of trace: (2, "traces/canneal_big3.champsimtrace")
*** Reached end of trace: (6, "traces/canneal_big3.champsimtrace")
Heartbeat CPU 2 instructions: 180000001 cycles: 45003650 heartbeat IPC: 4 cumulative IPC: 4 (Simulation time: 01 hr 45 min 54 sec)
Heartbeat CPU 6 instructions: 180000001 cycles: 45003657 heartbeat IPC: 4 cumulative IPC: 4 (Simulation time: 01 hr 45 min 54 sec)
*** Reached end of trace: (5, "traces/canneal_big2.champsimtrace")
*** Reached end of trace: (1, "traces/canneal_big2.champsimtrace")
Heartbeat CPU 5 instructions: 180000001 cycles: 45003805 heartbeat IPC: 4 cumulative IPC: 4 (Simulation time: 01 hr 45 min 54 sec)
Heartbeat CPU 1 instructions: 180000001 cycles: 45003810 heartbeat IPC: 4 cumulative IPC: 4 (Simulation time: 01 hr 45 min 54 sec)
*** Reached end of trace: (3, "traces/canneal_big0.champsimtrace")
*** Reached end of trace: (0, "traces/canneal_big1.champsimtrace")
*** Reached end of trace: (4, "traces/canneal_big1.champsimtrace")
*** Reached end of trace: (7, "traces/canneal_big0.champsimtrace")
*** Reached end of trace: (2, "traces/canneal_big3.champsimtrace")
*** Reached end of trace: (6, "traces/canneal_big3.champsimtrace")
*** Reached end of trace: (5, "traces/canneal_big2.champsimtrace")
*** Reached end of trace: (1, "traces/canneal_big2.champsimtrace")
*** Reached end of trace: (2, "traces/canneal_big3.champsimtrace")
*** Reached end of trace: (6, "traces/canneal_big3.champsimtrace")
Heartbeat CPU 2 instructions: 190000001 cycles: 47503650 heartbeat IPC: 4 cumulative IPC: 4 (Simulation time: 01 hr 51 min 35 sec)
Heartbeat CPU 6 instructions: 190000001 cycles: 47503657 heartbeat IPC: 4 cumulative IPC: 4 (Simulation time: 01 hr 51 min 35 sec)
*** Reached end of trace: (5, "traces/canneal_big2.champsimtrace")
*** Reached end of trace: (1, "traces/canneal_big2.champsimtrace")
Heartbeat CPU 5 instructions: 190000001 cycles: 47503805 heartbeat IPC: 4 cumulative IPC: 4 (Simulation time: 01 hr 51 min 35 sec)
Heartbeat CPU 1 instructions: 190000001 cycles: 47503810 heartbeat IPC: 4 cumulative IPC: 4 (Simulation time: 01 hr 51 min 35 sec)
*** Reached end of trace: (3, "traces/canneal_big0.champsimtrace")
Heartbeat CPU 3 instructions: 120000036 cycles: 47597008 heartbeat IPC: 2.435 cumulative IPC: 2.396 (Simulation time: 01 hr 51 min 48 sec)
*** Reached end of trace: (7, "traces/canneal_big0.champsimtrace")
Heartbeat CPU 7 instructions: 120000036 cycles: 48187063 heartbeat IPC: 2.32 cumulative IPC: 2.314 (Simulation time: 01 hr 53 min 10 sec)
*** Reached end of trace: (2, "traces/canneal_big3.champsimtrace")
*** Reached end of trace: (6, "traces/canneal_big3.champsimtrace")
*** Reached end of trace: (5, "traces/canneal_big2.champsimtrace")
*** Reached end of trace: (1, "traces/canneal_big2.champsimtrace")
*** Reached end of trace: (3, "traces/canneal_big0.champsimtrace")
*** Reached end of trace: (2, "traces/canneal_big3.champsimtrace")
*** Reached end of trace: (6, "traces/canneal_big3.champsimtrace")
Heartbeat CPU 2 instructions: 200000001 cycles: 50003650 heartbeat IPC: 4 cumulative IPC: 4 (Simulation time: 01 hr 57 min 19 sec)
Heartbeat CPU 6 instructions: 200000001 cycles: 50003657 heartbeat IPC: 4 cumulative IPC: 4 (Simulation time: 01 hr 57 min 19 sec)
*** Reached end of trace: (5, "traces/canneal_big2.champsimtrace")
*** Reached end of trace: (1, "traces/canneal_big2.champsimtrace")
Heartbeat CPU 5 instructions: 200000001 cycles: 50003805 heartbeat IPC: 4 cumulative IPC: 4 (Simulation time: 01 hr 57 min 19 sec)
Heartbeat CPU 1 instructions: 200000001 cycles: 50003810 heartbeat IPC: 4 cumulative IPC: 4 (Simulation time: 01 hr 57 min 19 sec)
*** Reached end of trace: (7, "traces/canneal_big0.champsimtrace")
*** Reached end of trace: (2, "traces/canneal_big3.champsimtrace")
*** Reached end of trace: (6, "traces/canneal_big3.champsimtrace")
*** Reached end of trace: (5, "traces/canneal_big2.champsimtrace")
*** Reached end of trace: (1, "traces/canneal_big2.champsimtrace")
*** Reached end of trace: (3, "traces/canneal_big0.champsimtrace")
Heartbeat CPU 3 instructions: 130000039 cycles: 51727022 heartbeat IPC: 2.421 cumulative IPC: 2.401 (Simulation time: 02 hr 01 min 19 sec)
*** Reached end of trace: (7, "traces/canneal_big0.champsimtrace")
Heartbeat CPU 7 instructions: 130000039 cycles: 52499464 heartbeat IPC: 2.319 cumulative IPC: 2.315 (Simulation time: 02 hr 03 min 07 sec)
*** Reached end of trace: (2, "traces/canneal_big3.champsimtrace")
*** Reached end of trace: (6, "traces/canneal_big3.champsimtrace")
Heartbeat CPU 2 instructions: 210000001 cycles: 52503650 heartbeat IPC: 4 cumulative IPC: 4 (Simulation time: 02 hr 03 min 07 sec)
Heartbeat CPU 6 instructions: 210000001 cycles: 52503657 heartbeat IPC: 4 cumulative IPC: 4 (Simulation time: 02 hr 03 min 07 sec)
*** Reached end of trace: (5, "traces/canneal_big2.champsimtrace")
*** Reached end of trace: (1, "traces/canneal_big2.champsimtrace")
Heartbeat CPU 5 instructions: 210000001 cycles: 52503805 heartbeat IPC: 4 cumulative IPC: 4 (Simulation time: 02 hr 03 min 07 sec)
Heartbeat CPU 1 instructions: 210000001 cycles: 52503810 heartbeat IPC: 4 cumulative IPC: 4 (Simulation time: 02 hr 03 min 07 sec)
*** Reached end of trace: (2, "traces/canneal_big3.champsimtrace")
*** Reached end of trace: (6, "traces/canneal_big3.champsimtrace")
*** Reached end of trace: (5, "traces/canneal_big2.champsimtrace")
*** Reached end of trace: (1, "traces/canneal_big2.champsimtrace")
*** Reached end of trace: (3, "traces/canneal_big0.champsimtrace")
*** Reached end of trace: (7, "traces/canneal_big0.champsimtrace")
*** Reached end of trace: (2, "traces/canneal_big3.champsimtrace")
*** Reached end of trace: (6, "traces/canneal_big3.champsimtrace")
Heartbeat CPU 2 instructions: 220000001 cycles: 55003650 heartbeat IPC: 4 cumulative IPC: 4 (Simulation time: 02 hr 08 min 56 sec)
Heartbeat CPU 6 instructions: 220000001 cycles: 55003657 heartbeat IPC: 4 cumulative IPC: 4 (Simulation time: 02 hr 08 min 56 sec)
*** Reached end of trace: (5, "traces/canneal_big2.champsimtrace")
*** Reached end of trace: (1, "traces/canneal_big2.champsimtrace")
Heartbeat CPU 5 instructions: 220000001 cycles: 55003805 heartbeat IPC: 4 cumulative IPC: 4 (Simulation time: 02 hr 08 min 56 sec)
Heartbeat CPU 1 instructions: 220000001 cycles: 55003810 heartbeat IPC: 4 cumulative IPC: 4 (Simulation time: 02 hr 08 min 56 sec)
Simulation finished CPU 6 instructions: 100000000 cycles: 25000000 cumulative IPC: 4 (Simulation time: 02 hr 09 min 07 sec)
Simulation finished CPU 5 instructions: 100000000 cycles: 25000000 cumulative IPC: 4 (Simulation time: 02 hr 09 min 07 sec)
Simulation finished CPU 2 instructions: 100000000 cycles: 25000000 cumulative IPC: 4 (Simulation time: 02 hr 09 min 07 sec)
Simulation finished CPU 1 instructions: 100000000 cycles: 25000000 cumulative IPC: 4 (Simulation time: 02 hr 09 min 07 sec)
*** Reached end of trace: (3, "traces/canneal_big0.champsimtrace")
Heartbeat CPU 3 instructions: 140000042 cycles: 55834089 heartbeat IPC: 2.435 cumulative IPC: 2.406 (Simulation time: 02 hr 10 min 52 sec)
*** Reached end of trace: (2, "traces/canneal_big3.champsimtrace")
*** Reached end of trace: (6, "traces/canneal_big3.champsimtrace")
*** Reached end of trace: (5, "traces/canneal_big2.champsimtrace")
*** Reached end of trace: (1, "traces/canneal_big2.champsimtrace")
*** Reached end of trace: (7, "traces/canneal_big0.champsimtrace")
Heartbeat CPU 7 instructions: 140000042 cycles: 56794400 heartbeat IPC: 2.328 cumulative IPC: 2.317 (Simulation time: 02 hr 13 min 06 sec)
*** Reached end of trace: (2, "traces/canneal_big3.champsimtrace")
*** Reached end of trace: (6, "traces/canneal_big3.champsimtrace")
Heartbeat CPU 2 instructions: 230000001 cycles: 57503650 heartbeat IPC: 4 cumulative IPC: 4 (Simulation time: 02 hr 14 min 45 sec)
Heartbeat CPU 6 instructions: 230000001 cycles: 57503657 heartbeat IPC: 4 cumulative IPC: 4 (Simulation time: 02 hr 14 min 45 sec)
*** Reached end of trace: (5, "traces/canneal_big2.champsimtrace")
*** Reached end of trace: (1, "traces/canneal_big2.champsimtrace")
Heartbeat CPU 5 instructions: 230000001 cycles: 57503805 heartbeat IPC: 4 cumulative IPC: 4 (Simulation time: 02 hr 14 min 45 sec)
Heartbeat CPU 1 instructions: 230000001 cycles: 57503810 heartbeat IPC: 4 cumulative IPC: 4 (Simulation time: 02 hr 14 min 45 sec)
*** Reached end of trace: (3, "traces/canneal_big0.champsimtrace")
*** Reached end of trace: (2, "traces/canneal_big3.champsimtrace")
*** Reached end of trace: (6, "traces/canneal_big3.champsimtrace")
*** Reached end of trace: (5, "traces/canneal_big2.champsimtrace")
*** Reached end of trace: (1, "traces/canneal_big2.champsimtrace")
*** Reached end of trace: (7, "traces/canneal_big0.champsimtrace")
*** Reached end of trace: (3, "traces/canneal_big0.champsimtrace")
Heartbeat CPU 3 instructions: 150000045 cycles: 59935731 heartbeat IPC: 2.438 cumulative IPC: 2.411 (Simulation time: 02 hr 20 min 25 sec)
*** Reached end of trace: (2, "traces/canneal_big3.champsimtrace")
*** Reached end of trace: (6, "traces/canneal_big3.champsimtrace")
Heartbeat CPU 2 instructions: 240000001 cycles: 60003650 heartbeat IPC: 4 cumulative IPC: 4 (Simulation time: 02 hr 20 min 34 sec)
Heartbeat CPU 6 instructions: 240000001 cycles: 60003657 heartbeat IPC: 4 cumulative IPC: 4 (Simulation time: 02 hr 20 min 34 sec)
*** Reached end of trace: (5, "traces/canneal_big2.champsimtrace")
*** Reached end of trace: (1, "traces/canneal_big2.champsimtrace")
Heartbeat CPU 5 instructions: 240000001 cycles: 60003805 heartbeat IPC: 4 cumulative IPC: 4 (Simulation time: 02 hr 20 min 34 sec)
Heartbeat CPU 1 instructions: 240000001 cycles: 60003810 heartbeat IPC: 4 cumulative IPC: 4 (Simulation time: 02 hr 20 min 34 sec)
*** Reached end of trace: (0, "traces/canneal_big1.champsimtrace")
*** Reached end of trace: (4, "traces/canneal_big1.champsimtrace")
Heartbeat CPU 0 instructions: 60000010 cycles: 60800445 heartbeat IPC: 0.325 cumulative IPC: 0.3229 (Simulation time: 02 hr 22 min 25 sec)
Heartbeat CPU 4 instructions: 60000010 cycles: 60800446 heartbeat IPC: 0.3255 cumulative IPC: 0.3255 (Simulation time: 02 hr 22 min 25 sec)
*** Reached end of trace: (7, "traces/canneal_big0.champsimtrace")
Heartbeat CPU 7 instructions: 150000045 cycles: 61106506 heartbeat IPC: 2.319 cumulative IPC: 2.318 (Simulation time: 02 hr 23 min 08 sec)
*** Reached end of trace: (2, "traces/canneal_big3.champsimtrace")
*** Reached end of trace: (6, "traces/canneal_big3.champsimtrace")
*** Reached end of trace: (5, "traces/canneal_big2.champsimtrace")
*** Reached end of trace: (1, "traces/canneal_big2.champsimtrace")
*** Reached end of trace: (3, "traces/canneal_big0.champsimtrace")
*** Reached end of trace: (2, "traces/canneal_big3.champsimtrace")
*** Reached end of trace: (6, "traces/canneal_big3.champsimtrace")
Heartbeat CPU 2 instructions: 250000001 cycles: 62503650 heartbeat IPC: 4 cumulative IPC: 4 (Simulation time: 02 hr 26 min 23 sec)
Heartbeat CPU 6 instructions: 250000001 cycles: 62503657 heartbeat IPC: 4 cumulative IPC: 4 (Simulation time: 02 hr 26 min 23 sec)
*** Reached end of trace: (5, "traces/canneal_big2.champsimtrace")
*** Reached end of trace: (1, "traces/canneal_big2.champsimtrace")
Heartbeat CPU 5 instructions: 250000001 cycles: 62503805 heartbeat IPC: 4 cumulative IPC: 4 (Simulation time: 02 hr 26 min 23 sec)
Heartbeat CPU 1 instructions: 250000001 cycles: 62503810 heartbeat IPC: 4 cumulative IPC: 4 (Simulation time: 02 hr 26 min 23 sec)
*** Reached end of trace: (7, "traces/canneal_big0.champsimtrace")
*** Reached end of trace: (2, "traces/canneal_big3.champsimtrace")
*** Reached end of trace: (6, "traces/canneal_big3.champsimtrace")
*** Reached end of trace: (5, "traces/canneal_big2.champsimtrace")
*** Reached end of trace: (1, "traces/canneal_big2.champsimtrace")
*** Reached end of trace: (3, "traces/canneal_big0.champsimtrace")
Heartbeat CPU 3 instructions: 160000048 cycles: 64026795 heartbeat IPC: 2.444 cumulative IPC: 2.415 (Simulation time: 02 hr 29 min 54 sec)
*** Reached end of trace: (2, "traces/canneal_big3.champsimtrace")
*** Reached end of trace: (6, "traces/canneal_big3.champsimtrace")
Heartbeat CPU 2 instructions: 260000001 cycles: 65003650 heartbeat IPC: 4 cumulative IPC: 4 (Simulation time: 02 hr 32 min 10 sec)
Heartbeat CPU 6 instructions: 260000001 cycles: 65003657 heartbeat IPC: 4 cumulative IPC: 4 (Simulation time: 02 hr 32 min 10 sec)
*** Reached end of trace: (5, "traces/canneal_big2.champsimtrace")
*** Reached end of trace: (1, "traces/canneal_big2.champsimtrace")
Heartbeat CPU 5 instructions: 260000001 cycles: 65003805 heartbeat IPC: 4 cumulative IPC: 4 (Simulation time: 02 hr 32 min 10 sec)
Heartbeat CPU 1 instructions: 260000001 cycles: 65003810 heartbeat IPC: 4 cumulative IPC: 4 (Simulation time: 02 hr 32 min 10 sec)
*** Reached end of trace: (7, "traces/canneal_big0.champsimtrace")
Heartbeat CPU 7 instructions: 160000048 cycles: 65435677 heartbeat IPC: 2.31 cumulative IPC: 2.317 (Simulation time: 02 hr 33 min 10 sec)
*** Reached end of trace: (3, "traces/canneal_big0.champsimtrace")
*** Reached end of trace: (2, "traces/canneal_big3.champsimtrace")
*** Reached end of trace: (6, "traces/canneal_big3.champsimtrace")
*** Reached end of trace: (5, "traces/canneal_big2.champsimtrace")
*** Reached end of trace: (1, "traces/canneal_big2.champsimtrace")
*** Reached end of trace: (2, "traces/canneal_big3.champsimtrace")
*** Reached end of trace: (6, "traces/canneal_big3.champsimtrace")
Heartbeat CPU 2 instructions: 270000001 cycles: 67503650 heartbeat IPC: 4 cumulative IPC: 4 (Simulation time: 02 hr 37 min 57 sec)
Heartbeat CPU 6 instructions: 270000001 cycles: 67503657 heartbeat IPC: 4 cumulative IPC: 4 (Simulation time: 02 hr 37 min 57 sec)
*** Reached end of trace: (5, "traces/canneal_big2.champsimtrace")
*** Reached end of trace: (1, "traces/canneal_big2.champsimtrace")
Heartbeat CPU 5 instructions: 270000001 cycles: 67503805 heartbeat IPC: 4 cumulative IPC: 4 (Simulation time: 02 hr 37 min 57 sec)
Heartbeat CPU 1 instructions: 270000001 cycles: 67503810 heartbeat IPC: 4 cumulative IPC: 4 (Simulation time: 02 hr 37 min 57 sec)
*** Reached end of trace: (7, "traces/canneal_big0.champsimtrace")
*** Reached end of trace: (3, "traces/canneal_big0.champsimtrace")
Heartbeat CPU 3 instructions: 170000051 cycles: 68106556 heartbeat IPC: 2.451 cumulative IPC: 2.419 (Simulation time: 02 hr 39 min 22 sec)
*** Reached end of trace: (2, "traces/canneal_big3.champsimtrace")
*** Reached end of trace: (6, "traces/canneal_big3.champsimtrace")
*** Reached end of trace: (5, "traces/canneal_big2.champsimtrace")
*** Reached end of trace: (1, "traces/canneal_big2.champsimtrace")
*** Reached end of trace: (7, "traces/canneal_big0.champsimtrace")
Heartbeat CPU 7 instructions: 170000051 cycles: 69757993 heartbeat IPC: 2.314 cumulative IPC: 2.316 (Simulation time: 02 hr 43 min 11 sec)
*** Reached end of trace: (2, "traces/canneal_big3.champsimtrace")
*** Reached end of trace: (6, "traces/canneal_big3.champsimtrace")
Heartbeat CPU 2 instructions: 280000001 cycles: 70003650 heartbeat IPC: 4 cumulative IPC: 4 (Simulation time: 02 hr 43 min 45 sec)
Heartbeat CPU 6 instructions: 280000001 cycles: 70003657 heartbeat IPC: 4 cumulative IPC: 4 (Simulation time: 02 hr 43 min 45 sec)
*** Reached end of trace: (5, "traces/canneal_big2.champsimtrace")
*** Reached end of trace: (1, "traces/canneal_big2.champsimtrace")
Heartbeat CPU 5 instructions: 280000001 cycles: 70003805 heartbeat IPC: 4 cumulative IPC: 4 (Simulation time: 02 hr 43 min 45 sec)
Heartbeat CPU 1 instructions: 280000001 cycles: 70003810 heartbeat IPC: 4 cumulative IPC: 4 (Simulation time: 02 hr 43 min 45 sec)
*** Reached end of trace: (3, "traces/canneal_big0.champsimtrace")
*** Reached end of trace: (2, "traces/canneal_big3.champsimtrace")
*** Reached end of trace: (6, "traces/canneal_big3.champsimtrace")
*** Reached end of trace: (5, "traces/canneal_big2.champsimtrace")
*** Reached end of trace: (1, "traces/canneal_big2.champsimtrace")
Simulation finished CPU 3 instructions: 100000000 cycles: 41376498 cumulative IPC: 2.417 (Simulation time: 02 hr 47 min 07 sec)
*** Reached end of trace: (7, "traces/canneal_big0.champsimtrace")
*** Reached end of trace: (3, "traces/canneal_big0.champsimtrace")
Heartbeat CPU 3 instructions: 180000054 cycles: 72186226 heartbeat IPC: 2.451 cumulative IPC: 2.422 (Simulation time: 02 hr 48 min 49 sec)
*** Reached end of trace: (2, "traces/canneal_big3.champsimtrace")
*** Reached end of trace: (6, "traces/canneal_big3.champsimtrace")
Heartbeat CPU 2 instructions: 290000001 cycles: 72503650 heartbeat IPC: 4 cumulative IPC: 4 (Simulation time: 02 hr 49 min 34 sec)
Heartbeat CPU 6 instructions: 290000001 cycles: 72503657 heartbeat IPC: 4 cumulative IPC: 4 (Simulation time: 02 hr 49 min 34 sec)
*** Reached end of trace: (5, "traces/canneal_big2.champsimtrace")
*** Reached end of trace: (1, "traces/canneal_big2.champsimtrace")
Heartbeat CPU 5 instructions: 290000001 cycles: 72503805 heartbeat IPC: 4 cumulative IPC: 4 (Simulation time: 02 hr 49 min 34 sec)
Heartbeat CPU 1 instructions: 290000001 cycles: 72503810 heartbeat IPC: 4 cumulative IPC: 4 (Simulation time: 02 hr 49 min 34 sec)
Simulation finished CPU 7 instructions: 100000000 cycles: 43211468 cumulative IPC: 2.314 (Simulation time: 02 hr 51 min 22 sec)
*** Reached end of trace: (2, "traces/canneal_big3.champsimtrace")
*** Reached end of trace: (6, "traces/canneal_big3.champsimtrace")
*** Reached end of trace: (5, "traces/canneal_big2.champsimtrace")
*** Reached end of trace: (1, "traces/canneal_big2.champsimtrace")
*** Reached end of trace: (7, "traces/canneal_big0.champsimtrace")
Heartbeat CPU 7 instructions: 180000054 cycles: 74039869 heartbeat IPC: 2.335 cumulative IPC: 2.318 (Simulation time: 02 hr 53 min 06 sec)
*** Reached end of trace: (3, "traces/canneal_big0.champsimtrace")
*** Reached end of trace: (2, "traces/canneal_big3.champsimtrace")
*** Reached end of trace: (6, "traces/canneal_big3.champsimtrace")
Heartbeat CPU 2 instructions: 300000001 cycles: 75003650 heartbeat IPC: 4 cumulative IPC: 4 (Simulation time: 02 hr 55 min 21 sec)
Heartbeat CPU 6 instructions: 300000001 cycles: 75003657 heartbeat IPC: 4 cumulative IPC: 4 (Simulation time: 02 hr 55 min 21 sec)
*** Reached end of trace: (5, "traces/canneal_big2.champsimtrace")
*** Reached end of trace: (1, "traces/canneal_big2.champsimtrace")
Heartbeat CPU 5 instructions: 300000001 cycles: 75003805 heartbeat IPC: 4 cumulative IPC: 4 (Simulation time: 02 hr 55 min 21 sec)
Heartbeat CPU 1 instructions: 300000001 cycles: 75003810 heartbeat IPC: 4 cumulative IPC: 4 (Simulation time: 02 hr 55 min 21 sec)
*** Reached end of trace: (0, "traces/canneal_big1.champsimtrace")
*** Reached end of trace: (4, "traces/canneal_big1.champsimtrace")
*** Reached end of trace: (7, "traces/canneal_big0.champsimtrace")
*** Reached end of trace: (3, "traces/canneal_big0.champsimtrace")
Heartbeat CPU 3 instructions: 190000057 cycles: 76237995 heartbeat IPC: 2.468 cumulative IPC: 2.426 (Simulation time: 02 hr 58 min 13 sec)
*** Reached end of trace: (2, "traces/canneal_big3.champsimtrace")
*** Reached end of trace: (6, "traces/canneal_big3.champsimtrace")
*** Reached end of trace: (5, "traces/canneal_big2.champsimtrace")
*** Reached end of trace: (1, "traces/canneal_big2.champsimtrace")
*** Reached end of trace: (2, "traces/canneal_big3.champsimtrace")
*** Reached end of trace: (6, "traces/canneal_big3.champsimtrace")
Heartbeat CPU 2 instructions: 310000001 cycles: 77503650 heartbeat IPC: 4 cumulative IPC: 4 (Simulation time: 03 hr 01 min 09 sec)
Heartbeat CPU 6 instructions: 310000001 cycles: 77503657 heartbeat IPC: 4 cumulative IPC: 4 (Simulation time: 03 hr 01 min 09 sec)
*** Reached end of trace: (5, "traces/canneal_big2.champsimtrace")
*** Reached end of trace: (1, "traces/canneal_big2.champsimtrace")
Heartbeat CPU 5 instructions: 310000001 cycles: 77503805 heartbeat IPC: 4 cumulative IPC: 4 (Simulation time: 03 hr 01 min 09 sec)
Heartbeat CPU 1 instructions: 310000001 cycles: 77503810 heartbeat IPC: 4 cumulative IPC: 4 (Simulation time: 03 hr 01 min 09 sec)
*** Reached end of trace: (3, "traces/canneal_big0.champsimtrace")
*** Reached end of trace: (7, "traces/canneal_big0.champsimtrace")
Heartbeat CPU 7 instructions: 190000057 cycles: 78308115 heartbeat IPC: 2.343 cumulative IPC: 2.32 (Simulation time: 03 hr 03 min 01 sec)
*** Reached end of trace: (2, "traces/canneal_big3.champsimtrace")
*** Reached end of trace: (6, "traces/canneal_big3.champsimtrace")
*** Reached end of trace: (5, "traces/canneal_big2.champsimtrace")
*** Reached end of trace: (1, "traces/canneal_big2.champsimtrace")
*** Reached end of trace: (2, "traces/canneal_big3.champsimtrace")
*** Reached end of trace: (6, "traces/canneal_big3.champsimtrace")
Heartbeat CPU 2 instructions: 320000001 cycles: 80003650 heartbeat IPC: 4 cumulative IPC: 4 (Simulation time: 03 hr 06 min 57 sec)
Heartbeat CPU 6 instructions: 320000001 cycles: 80003657 heartbeat IPC: 4 cumulative IPC: 4 (Simulation time: 03 hr 06 min 57 sec)
*** Reached end of trace: (5, "traces/canneal_big2.champsimtrace")
*** Reached end of trace: (1, "traces/canneal_big2.champsimtrace")
Heartbeat CPU 5 instructions: 320000001 cycles: 80003805 heartbeat IPC: 4 cumulative IPC: 4 (Simulation time: 03 hr 06 min 57 sec)
Heartbeat CPU 1 instructions: 320000001 cycles: 80003810 heartbeat IPC: 4 cumulative IPC: 4 (Simulation time: 03 hr 06 min 57 sec)
*** Reached end of trace: (3, "traces/canneal_big0.champsimtrace")
Heartbeat CPU 3 instructions: 200000060 cycles: 80238971 heartbeat IPC: 2.499 cumulative IPC: 2.432 (Simulation time: 03 hr 07 min 30 sec)
*** Reached end of trace: (7, "traces/canneal_big0.champsimtrace")
*** Reached end of trace: (2, "traces/canneal_big3.champsimtrace")
*** Reached end of trace: (6, "traces/canneal_big3.champsimtrace")
*** Reached end of trace: (5, "traces/canneal_big2.champsimtrace")
*** Reached end of trace: (1, "traces/canneal_big2.champsimtrace")
*** Reached end of trace: (3, "traces/canneal_big0.champsimtrace")
*** Reached end of trace: (7, "traces/canneal_big0.champsimtrace")
Heartbeat CPU 7 instructions: 200000060 cycles: 82487436 heartbeat IPC: 2.393 cumulative IPC: 2.326 (Simulation time: 03 hr 12 min 43 sec)
*** Reached end of trace: (2, "traces/canneal_big3.champsimtrace")
*** Reached end of trace: (6, "traces/canneal_big3.champsimtrace")
Heartbeat CPU 2 instructions: 330000001 cycles: 82503650 heartbeat IPC: 4 cumulative IPC: 4 (Simulation time: 03 hr 12 min 46 sec)
Heartbeat CPU 6 instructions: 330000001 cycles: 82503657 heartbeat IPC: 4 cumulative IPC: 4 (Simulation time: 03 hr 12 min 46 sec)
*** Reached end of trace: (5, "traces/canneal_big2.champsimtrace")
*** Reached end of trace: (1, "traces/canneal_big2.champsimtrace")
Heartbeat CPU 5 instructions: 330000001 cycles: 82503805 heartbeat IPC: 4 cumulative IPC: 4 (Simulation time: 03 hr 12 min 46 sec)
Heartbeat CPU 1 instructions: 330000001 cycles: 82503810 heartbeat IPC: 4 cumulative IPC: 4 (Simulation time: 03 hr 12 min 46 sec)
*** Reached end of trace: (2, "traces/canneal_big3.champsimtrace")
*** Reached end of trace: (6, "traces/canneal_big3.champsimtrace")
*** Reached end of trace: (5, "traces/canneal_big2.champsimtrace")
*** Reached end of trace: (1, "traces/canneal_big2.champsimtrace")
*** Reached end of trace: (3, "traces/canneal_big0.champsimtrace")
Heartbeat CPU 3 instructions: 210000063 cycles: 84231156 heartbeat IPC: 2.505 cumulative IPC: 2.437 (Simulation time: 03 hr 16 min 46 sec)
*** Reached end of trace: (7, "traces/canneal_big0.champsimtrace")
*** Reached end of trace: (2, "traces/canneal_big3.champsimtrace")
*** Reached end of trace: (6, "traces/canneal_big3.champsimtrace")
Heartbeat CPU 2 instructions: 340000001 cycles: 85003650 heartbeat IPC: 4 cumulative IPC: 4 (Simulation time: 03 hr 18 min 35 sec)
Heartbeat CPU 6 instructions: 340000001 cycles: 85003657 heartbeat IPC: 4 cumulative IPC: 4 (Simulation time: 03 hr 18 min 35 sec)
*** Reached end of trace: (5, "traces/canneal_big2.champsimtrace")
*** Reached end of trace: (1, "traces/canneal_big2.champsimtrace")
Heartbeat CPU 5 instructions: 340000001 cycles: 85003805 heartbeat IPC: 4 cumulative IPC: 4 (Simulation time: 03 hr 18 min 35 sec)
Heartbeat CPU 1 instructions: 340000001 cycles: 85003810 heartbeat IPC: 4 cumulative IPC: 4 (Simulation time: 03 hr 18 min 35 sec)
*** Reached end of trace: (3, "traces/canneal_big0.champsimtrace")
*** Reached end of trace: (2, "traces/canneal_big3.champsimtrace")
*** Reached end of trace: (6, "traces/canneal_big3.champsimtrace")
*** Reached end of trace: (5, "traces/canneal_big2.champsimtrace")
*** Reached end of trace: (1, "traces/canneal_big2.champsimtrace")
*** Reached end of trace: (7, "traces/canneal_big0.champsimtrace")
Heartbeat CPU 7 instructions: 210000063 cycles: 86680792 heartbeat IPC: 2.385 cumulative IPC: 2.33 (Simulation time: 03 hr 22 min 28 sec)
*** Reached end of trace: (2, "traces/canneal_big3.champsimtrace")
*** Reached end of trace: (6, "traces/canneal_big3.champsimtrace")
Heartbeat CPU 2 instructions: 350000001 cycles: 87503650 heartbeat IPC: 4 cumulative IPC: 4 (Simulation time: 03 hr 24 min 22 sec)
Heartbeat CPU 6 instructions: 350000001 cycles: 87503657 heartbeat IPC: 4 cumulative IPC: 4 (Simulation time: 03 hr 24 min 22 sec)
*** Reached end of trace: (5, "traces/canneal_big2.champsimtrace")
*** Reached end of trace: (1, "traces/canneal_big2.champsimtrace")
Heartbeat CPU 5 instructions: 350000001 cycles: 87503805 heartbeat IPC: 4 cumulative IPC: 4 (Simulation time: 03 hr 24 min 22 sec)
Heartbeat CPU 1 instructions: 350000001 cycles: 87503810 heartbeat IPC: 4 cumulative IPC: 4 (Simulation time: 03 hr 24 min 22 sec)
*** Reached end of trace: (3, "traces/canneal_big0.champsimtrace")
Heartbeat CPU 3 instructions: 220000066 cycles: 88229914 heartbeat IPC: 2.501 cumulative IPC: 2.442 (Simulation time: 03 hr 26 min 03 sec)
*** Reached end of trace: (2, "traces/canneal_big3.champsimtrace")
*** Reached end of trace: (6, "traces/canneal_big3.champsimtrace")
*** Reached end of trace: (5, "traces/canneal_big2.champsimtrace")
*** Reached end of trace: (1, "traces/canneal_big2.champsimtrace")
*** Reached end of trace: (7, "traces/canneal_big0.champsimtrace")
*** Reached end of trace: (2, "traces/canneal_big3.champsimtrace")
*** Reached end of trace: (6, "traces/canneal_big3.champsimtrace")
Heartbeat CPU 2 instructions: 360000001 cycles: 90003650 heartbeat IPC: 4 cumulative IPC: 4 (Simulation time: 03 hr 30 min 10 sec)
Heartbeat CPU 6 instructions: 360000001 cycles: 90003657 heartbeat IPC: 4 cumulative IPC: 4 (Simulation time: 03 hr 30 min 10 sec)
*** Reached end of trace: (5, "traces/canneal_big2.champsimtrace")
*** Reached end of trace: (1, "traces/canneal_big2.champsimtrace")
Heartbeat CPU 5 instructions: 360000001 cycles: 90003805 heartbeat IPC: 4 cumulative IPC: 4 (Simulation time: 03 hr 30 min 10 sec)
Heartbeat CPU 1 instructions: 360000001 cycles: 90003810 heartbeat IPC: 4 cumulative IPC: 4 (Simulation time: 03 hr 30 min 10 sec)
*** Reached end of trace: (3, "traces/canneal_big0.champsimtrace")
*** Reached end of trace: (0, "traces/canneal_big1.champsimtrace")
*** Reached end of trace: (4, "traces/canneal_big1.champsimtrace")
Heartbeat CPU 0 instructions: 70000012 cycles: 90631144 heartbeat IPC: 0.3352 cumulative IPC: 0.329 (Simulation time: 03 hr 31 min 38 sec)
Heartbeat CPU 4 instructions: 70000012 cycles: 90631145 heartbeat IPC: 0.3352 cumulative IPC: 0.3303 (Simulation time: 03 hr 31 min 38 sec)
*** Reached end of trace: (7, "traces/canneal_big0.champsimtrace")
Heartbeat CPU 7 instructions: 220000066 cycles: 90888363 heartbeat IPC: 2.377 cumulative IPC: 2.334 (Simulation time: 03 hr 32 min 13 sec)
*** Reached end of trace: (2, "traces/canneal_big3.champsimtrace")
*** Reached end of trace: (6, "traces/canneal_big3.champsimtrace")
*** Reached end of trace: (5, "traces/canneal_big2.champsimtrace")
*** Reached end of trace: (1, "traces/canneal_big2.champsimtrace")
*** Reached end of trace: (3, "traces/canneal_big0.champsimtrace")
Heartbeat CPU 3 instructions: 230000069 cycles: 92259695 heartbeat IPC: 2.482 cumulative IPC: 2.444 (Simulation time: 03 hr 35 min 24 sec)
*** Reached end of trace: (2, "traces/canneal_big3.champsimtrace")
*** Reached end of trace: (6, "traces/canneal_big3.champsimtrace")
Heartbeat CPU 2 instructions: 370000001 cycles: 92503650 heartbeat IPC: 4 cumulative IPC: 4 (Simulation time: 03 hr 35 min 59 sec)
Heartbeat CPU 6 instructions: 370000001 cycles: 92503657 heartbeat IPC: 4 cumulative IPC: 4 (Simulation time: 03 hr 35 min 59 sec)
*** Reached end of trace: (5, "traces/canneal_big2.champsimtrace")
*** Reached end of trace: (1, "traces/canneal_big2.champsimtrace")
Heartbeat CPU 5 instructions: 370000001 cycles: 92503805 heartbeat IPC: 4 cumulative IPC: 4 (Simulation time: 03 hr 35 min 59 sec)
Heartbeat CPU 1 instructions: 370000001 cycles: 92503810 heartbeat IPC: 4 cumulative IPC: 4 (Simulation time: 03 hr 35 min 59 sec)
*** Reached end of trace: (7, "traces/canneal_big0.champsimtrace")
*** Reached end of trace: (2, "traces/canneal_big3.champsimtrace")
*** Reached end of trace: (6, "traces/canneal_big3.champsimtrace")
*** Reached end of trace: (5, "traces/canneal_big2.champsimtrace")
*** Reached end of trace: (1, "traces/canneal_big2.champsimtrace")
*** Reached end of trace: (3, "traces/canneal_big0.champsimtrace")
*** Reached end of trace: (2, "traces/canneal_big3.champsimtrace")
*** Reached end of trace: (6, "traces/canneal_big3.champsimtrace")
Heartbeat CPU 2 instructions: 380000001 cycles: 95003650 heartbeat IPC: 4 cumulative IPC: 4 (Simulation time: 03 hr 41 min 46 sec)
Heartbeat CPU 6 instructions: 380000001 cycles: 95003657 heartbeat IPC: 4 cumulative IPC: 4 (Simulation time: 03 hr 41 min 46 sec)
*** Reached end of trace: (5, "traces/canneal_big2.champsimtrace")
*** Reached end of trace: (1, "traces/canneal_big2.champsimtrace")
Heartbeat CPU 5 instructions: 380000001 cycles: 95003805 heartbeat IPC: 4 cumulative IPC: 4 (Simulation time: 03 hr 41 min 46 sec)
Heartbeat CPU 1 instructions: 380000001 cycles: 95003810 heartbeat IPC: 4 cumulative IPC: 4 (Simulation time: 03 hr 41 min 46 sec)
*** Reached end of trace: (7, "traces/canneal_big0.champsimtrace")
Heartbeat CPU 7 instructions: 230000069 cycles: 95115789 heartbeat IPC: 2.366 cumulative IPC: 2.336 (Simulation time: 03 hr 42 min 02 sec)
*** Reached end of trace: (2, "traces/canneal_big3.champsimtrace")
*** Reached end of trace: (6, "traces/canneal_big3.champsimtrace")
*** Reached end of trace: (5, "traces/canneal_big2.champsimtrace")
*** Reached end of trace: (1, "traces/canneal_big2.champsimtrace")
*** Reached end of trace: (3, "traces/canneal_big0.champsimtrace")
Heartbeat CPU 3 instructions: 240000072 cycles: 96285257 heartbeat IPC: 2.484 cumulative IPC: 2.447 (Simulation time: 03 hr 44 min 45 sec)
*** Reached end of trace: (7, "traces/canneal_big0.champsimtrace")
*** Reached end of trace: (2, "traces/canneal_big3.champsimtrace")
*** Reached end of trace: (6, "traces/canneal_big3.champsimtrace")
Heartbeat CPU 2 instructions: 390000001 cycles: 97503650 heartbeat IPC: 4 cumulative IPC: 4 (Simulation time: 03 hr 47 min 35 sec)
Heartbeat CPU 6 instructions: 390000001 cycles: 97503657 heartbeat IPC: 4 cumulative IPC: 4 (Simulation time: 03 hr 47 min 35 sec)
*** Reached end of trace: (5, "traces/canneal_big2.champsimtrace")
*** Reached end of trace: (1, "traces/canneal_big2.champsimtrace")
Heartbeat CPU 5 instructions: 390000001 cycles: 97503805 heartbeat IPC: 4 cumulative IPC: 4 (Simulation time: 03 hr 47 min 35 sec)
Heartbeat CPU 1 instructions: 390000001 cycles: 97503810 heartbeat IPC: 4 cumulative IPC: 4 (Simulation time: 03 hr 47 min 35 sec)
*** Reached end of trace: (3, "traces/canneal_big0.champsimtrace")
*** Reached end of trace: (2, "traces/canneal_big3.champsimtrace")
*** Reached end of trace: (6, "traces/canneal_big3.champsimtrace")
*** Reached end of trace: (5, "traces/canneal_big2.champsimtrace")
*** Reached end of trace: (1, "traces/canneal_big2.champsimtrace")
*** Reached end of trace: (7, "traces/canneal_big0.champsimtrace")
Heartbeat CPU 7 instructions: 240000072 cycles: 99351900 heartbeat IPC: 2.361 cumulative IPC: 2.337 (Simulation time: 03 hr 51 min 52 sec)
*** Reached end of trace: (2, "traces/canneal_big3.champsimtrace")
*** Reached end of trace: (6, "traces/canneal_big3.champsimtrace")
Heartbeat CPU 2 instructions: 400000001 cycles: 100003650 heartbeat IPC: 4 cumulative IPC: 4 (Simulation time: 03 hr 53 min 23 sec)
Heartbeat CPU 6 instructions: 400000001 cycles: 100003657 heartbeat IPC: 4 cumulative IPC: 4 (Simulation time: 03 hr 53 min 23 sec)
*** Reached end of trace: (5, "traces/canneal_big2.champsimtrace")
*** Reached end of trace: (1, "traces/canneal_big2.champsimtrace")
Heartbeat CPU 5 instructions: 400000001 cycles: 100003805 heartbeat IPC: 4 cumulative IPC: 4 (Simulation time: 03 hr 53 min 23 sec)
Heartbeat CPU 1 instructions: 400000001 cycles: 100003810 heartbeat IPC: 4 cumulative IPC: 4 (Simulation time: 03 hr 53 min 23 sec)
*** Reached end of trace: (3, "traces/canneal_big0.champsimtrace")
Heartbeat CPU 3 instructions: 250000075 cycles: 100313430 heartbeat IPC: 2.483 cumulative IPC: 2.449 (Simulation time: 03 hr 54 min 06 sec)
*** Reached end of trace: (2, "traces/canneal_big3.champsimtrace")
*** Reached end of trace: (6, "traces/canneal_big3.champsimtrace")
*** Reached end of trace: (5, "traces/canneal_big2.champsimtrace")
*** Reached end of trace: (1, "traces/canneal_big2.champsimtrace")
*** Reached end of trace: (7, "traces/canneal_big0.champsimtrace")
*** Reached end of trace: (3, "traces/canneal_big0.champsimtrace")
*** Reached end of trace: (2, "traces/canneal_big3.champsimtrace")
*** Reached end of trace: (6, "traces/canneal_big3.champsimtrace")
Heartbeat CPU 2 instructions: 410000001 cycles: 102503650 heartbeat IPC: 4 cumulative IPC: 4 (Simulation time: 03 hr 59 min 12 sec)
Heartbeat CPU 6 instructions: 410000001 cycles: 102503657 heartbeat IPC: 4 cumulative IPC: 4 (Simulation time: 03 hr 59 min 12 sec)
*** Reached end of trace: (5, "traces/canneal_big2.champsimtrace")
*** Reached end of trace: (1, "traces/canneal_big2.champsimtrace")
Heartbeat CPU 5 instructions: 410000001 cycles: 102503805 heartbeat IPC: 4 cumulative IPC: 4 (Simulation time: 03 hr 59 min 12 sec)
Heartbeat CPU 1 instructions: 410000001 cycles: 102503810 heartbeat IPC: 4 cumulative IPC: 4 (Simulation time: 03 hr 59 min 12 sec)
*** Reached end of trace: (7, "traces/canneal_big0.champsimtrace")
Heartbeat CPU 7 instructions: 250000075 cycles: 103595836 heartbeat IPC: 2.356 cumulative IPC: 2.338 (Simulation time: 04 hr 01 min 43 sec)
*** Reached end of trace: (2, "traces/canneal_big3.champsimtrace")
*** Reached end of trace: (6, "traces/canneal_big3.champsimtrace")
*** Reached end of trace: (5, "traces/canneal_big2.champsimtrace")
*** Reached end of trace: (1, "traces/canneal_big2.champsimtrace")
*** Reached end of trace: (3, "traces/canneal_big0.champsimtrace")
Heartbeat CPU 3 instructions: 260000078 cycles: 104337765 heartbeat IPC: 2.485 cumulative IPC: 2.451 (Simulation time: 04 hr 03 min 27 sec)
*** Reached end of trace: (2, "traces/canneal_big3.champsimtrace")
*** Reached end of trace: (6, "traces/canneal_big3.champsimtrace")
Heartbeat CPU 2 instructions: 420000001 cycles: 105003650 heartbeat IPC: 4 cumulative IPC: 4 (Simulation time: 04 hr 05 min 00 sec)
Heartbeat CPU 6 instructions: 420000001 cycles: 105003657 heartbeat IPC: 4 cumulative IPC: 4 (Simulation time: 04 hr 05 min 00 sec)
*** Reached end of trace: (5, "traces/canneal_big2.champsimtrace")
*** Reached end of trace: (1, "traces/canneal_big2.champsimtrace")
Heartbeat CPU 5 instructions: 420000001 cycles: 105003805 heartbeat IPC: 4 cumulative IPC: 4 (Simulation time: 04 hr 05 min 00 sec)
Heartbeat CPU 1 instructions: 420000001 cycles: 105003810 heartbeat IPC: 4 cumulative IPC: 4 (Simulation time: 04 hr 05 min 00 sec)
*** Reached end of trace: (0, "traces/canneal_big1.champsimtrace")
*** Reached end of trace: (4, "traces/canneal_big1.champsimtrace")
*** Reached end of trace: (7, "traces/canneal_big0.champsimtrace")
*** Reached end of trace: (2, "traces/canneal_big3.champsimtrace")
*** Reached end of trace: (6, "traces/canneal_big3.champsimtrace")
*** Reached end of trace: (5, "traces/canneal_big2.champsimtrace")
*** Reached end of trace: (1, "traces/canneal_big2.champsimtrace")
*** Reached end of trace: (3, "traces/canneal_big0.champsimtrace")
*** Reached end of trace: (2, "traces/canneal_big3.champsimtrace")
*** Reached end of trace: (6, "traces/canneal_big3.champsimtrace")
Heartbeat CPU 2 instructions: 430000001 cycles: 107503650 heartbeat IPC: 4 cumulative IPC: 4 (Simulation time: 04 hr 10 min 47 sec)
Heartbeat CPU 6 instructions: 430000001 cycles: 107503657 heartbeat IPC: 4 cumulative IPC: 4 (Simulation time: 04 hr 10 min 47 sec)
*** Reached end of trace: (5, "traces/canneal_big2.champsimtrace")
*** Reached end of trace: (1, "traces/canneal_big2.champsimtrace")
Heartbeat CPU 5 instructions: 430000001 cycles: 107503805 heartbeat IPC: 4 cumulative IPC: 4 (Simulation time: 04 hr 10 min 47 sec)
Heartbeat CPU 1 instructions: 430000001 cycles: 107503810 heartbeat IPC: 4 cumulative IPC: 4 (Simulation time: 04 hr 10 min 47 sec)
*** Reached end of trace: (7, "traces/canneal_big0.champsimtrace")
Heartbeat CPU 7 instructions: 260000078 cycles: 107844887 heartbeat IPC: 2.353 cumulative IPC: 2.339 (Simulation time: 04 hr 11 min 35 sec)
*** Reached end of trace: (3, "traces/canneal_big0.champsimtrace")
Heartbeat CPU 3 instructions: 270000081 cycles: 108357494 heartbeat IPC: 2.488 cumulative IPC: 2.453 (Simulation time: 04 hr 12 min 47 sec)
*** Reached end of trace: (2, "traces/canneal_big3.champsimtrace")
*** Reached end of trace: (6, "traces/canneal_big3.champsimtrace")
*** Reached end of trace: (5, "traces/canneal_big2.champsimtrace")
*** Reached end of trace: (1, "traces/canneal_big2.champsimtrace")
*** Reached end of trace: (7, "traces/canneal_big0.champsimtrace")
*** Reached end of trace: (2, "traces/canneal_big3.champsimtrace")
*** Reached end of trace: (6, "traces/canneal_big3.champsimtrace")
Heartbeat CPU 2 instructions: 440000001 cycles: 110003650 heartbeat IPC: 4 cumulative IPC: 4 (Simulation time: 04 hr 16 min 35 sec)
Heartbeat CPU 6 instructions: 440000001 cycles: 110003657 heartbeat IPC: 4 cumulative IPC: 4 (Simulation time: 04 hr 16 min 35 sec)
*** Reached end of trace: (5, "traces/canneal_big2.champsimtrace")
*** Reached end of trace: (1, "traces/canneal_big2.champsimtrace")
Heartbeat CPU 5 instructions: 440000001 cycles: 110003805 heartbeat IPC: 4 cumulative IPC: 4 (Simulation time: 04 hr 16 min 35 sec)
Heartbeat CPU 1 instructions: 440000001 cycles: 110003810 heartbeat IPC: 4 cumulative IPC: 4 (Simulation time: 04 hr 16 min 35 sec)
*** Reached end of trace: (3, "traces/canneal_big0.champsimtrace")
*** Reached end of trace: (2, "traces/canneal_big3.champsimtrace")
*** Reached end of trace: (6, "traces/canneal_big3.champsimtrace")
*** Reached end of trace: (5, "traces/canneal_big2.champsimtrace")
*** Reached end of trace: (1, "traces/canneal_big2.champsimtrace")
*** Reached end of trace: (7, "traces/canneal_big0.champsimtrace")
Heartbeat CPU 7 instructions: 270000081 cycles: 112086303 heartbeat IPC: 2.358 cumulative IPC: 2.34 (Simulation time: 04 hr 21 min 25 sec)
*** Reached end of trace: (3, "traces/canneal_big0.champsimtrace")
Heartbeat CPU 3 instructions: 280000084 cycles: 112378357 heartbeat IPC: 2.487 cumulative IPC: 2.454 (Simulation time: 04 hr 22 min 06 sec)
*** Reached end of trace: (2, "traces/canneal_big3.champsimtrace")
*** Reached end of trace: (6, "traces/canneal_big3.champsimtrace")
Heartbeat CPU 2 instructions: 450000001 cycles: 112503650 heartbeat IPC: 4 cumulative IPC: 4 (Simulation time: 04 hr 22 min 24 sec)
Heartbeat CPU 6 instructions: 450000001 cycles: 112503657 heartbeat IPC: 4 cumulative IPC: 4 (Simulation time: 04 hr 22 min 24 sec)
*** Reached end of trace: (5, "traces/canneal_big2.champsimtrace")
*** Reached end of trace: (1, "traces/canneal_big2.champsimtrace")
Heartbeat CPU 5 instructions: 450000001 cycles: 112503805 heartbeat IPC: 4 cumulative IPC: 4 (Simulation time: 04 hr 22 min 24 sec)
Heartbeat CPU 1 instructions: 450000001 cycles: 112503810 heartbeat IPC: 4 cumulative IPC: 4 (Simulation time: 04 hr 22 min 24 sec)
*** Reached end of trace: (2, "traces/canneal_big3.champsimtrace")
*** Reached end of trace: (6, "traces/canneal_big3.champsimtrace")
*** Reached end of trace: (5, "traces/canneal_big2.champsimtrace")
*** Reached end of trace: (1, "traces/canneal_big2.champsimtrace")
*** Reached end of trace: (7, "traces/canneal_big0.champsimtrace")
*** Reached end of trace: (3, "traces/canneal_big0.champsimtrace")
*** Reached end of trace: (2, "traces/canneal_big3.champsimtrace")
*** Reached end of trace: (6, "traces/canneal_big3.champsimtrace")
Heartbeat CPU 2 instructions: 460000001 cycles: 115003650 heartbeat IPC: 4 cumulative IPC: 4 (Simulation time: 04 hr 28 min 12 sec)
Heartbeat CPU 6 instructions: 460000001 cycles: 115003657 heartbeat IPC: 4 cumulative IPC: 4 (Simulation time: 04 hr 28 min 12 sec)
*** Reached end of trace: (5, "traces/canneal_big2.champsimtrace")
*** Reached end of trace: (1, "traces/canneal_big2.champsimtrace")
Heartbeat CPU 5 instructions: 460000001 cycles: 115003805 heartbeat IPC: 4 cumulative IPC: 4 (Simulation time: 04 hr 28 min 12 sec)
Heartbeat CPU 1 instructions: 460000001 cycles: 115003810 heartbeat IPC: 4 cumulative IPC: 4 (Simulation time: 04 hr 28 min 12 sec)
*** Reached end of trace: (2, "traces/canneal_big3.champsimtrace")
*** Reached end of trace: (6, "traces/canneal_big3.champsimtrace")
*** Reached end of trace: (5, "traces/canneal_big2.champsimtrace")
*** Reached end of trace: (1, "traces/canneal_big2.champsimtrace")
*** Reached end of trace: (7, "traces/canneal_big0.champsimtrace")
Heartbeat CPU 7 instructions: 280000084 cycles: 116321929 heartbeat IPC: 2.361 cumulative IPC: 2.341 (Simulation time: 04 hr 31 min 14 sec)
*** Reached end of trace: (3, "traces/canneal_big0.champsimtrace")
Heartbeat CPU 3 instructions: 290000087 cycles: 116387454 heartbeat IPC: 2.494 cumulative IPC: 2.456 (Simulation time: 04 hr 31 min 23 sec)
*** Reached end of trace: (2, "traces/canneal_big3.champsimtrace")
*** Reached end of trace: (6, "traces/canneal_big3.champsimtrace")
Heartbeat CPU 2 instructions: 470000001 cycles: 117503650 heartbeat IPC: 4 cumulative IPC: 4 (Simulation time: 04 hr 33 min 59 sec)
Heartbeat CPU 6 instructions: 470000001 cycles: 117503657 heartbeat IPC: 4 cumulative IPC: 4 (Simulation time: 04 hr 33 min 59 sec)
*** Reached end of trace: (5, "traces/canneal_big2.champsimtrace")
*** Reached end of trace: (1, "traces/canneal_big2.champsimtrace")
Heartbeat CPU 5 instructions: 470000001 cycles: 117503805 heartbeat IPC: 4 cumulative IPC: 4 (Simulation time: 04 hr 33 min 59 sec)
Heartbeat CPU 1 instructions: 470000001 cycles: 117503810 heartbeat IPC: 4 cumulative IPC: 4 (Simulation time: 04 hr 33 min 59 sec)
*** Reached end of trace: (3, "traces/canneal_big0.champsimtrace")
*** Reached end of trace: (7, "traces/canneal_big0.champsimtrace")
*** Reached end of trace: (2, "traces/canneal_big3.champsimtrace")
*** Reached end of trace: (6, "traces/canneal_big3.champsimtrace")
*** Reached end of trace: (5, "traces/canneal_big2.champsimtrace")
*** Reached end of trace: (1, "traces/canneal_big2.champsimtrace")
*** Reached end of trace: (2, "traces/canneal_big3.champsimtrace")
*** Reached end of trace: (6, "traces/canneal_big3.champsimtrace")
Heartbeat CPU 2 instructions: 480000001 cycles: 120003650 heartbeat IPC: 4 cumulative IPC: 4 (Simulation time: 04 hr 39 min 46 sec)
Heartbeat CPU 6 instructions: 480000001 cycles: 120003657 heartbeat IPC: 4 cumulative IPC: 4 (Simulation time: 04 hr 39 min 46 sec)
*** Reached end of trace: (5, "traces/canneal_big2.champsimtrace")
*** Reached end of trace: (1, "traces/canneal_big2.champsimtrace")
Heartbeat CPU 5 instructions: 480000001 cycles: 120003805 heartbeat IPC: 4 cumulative IPC: 4 (Simulation time: 04 hr 39 min 46 sec)
Heartbeat CPU 1 instructions: 480000001 cycles: 120003810 heartbeat IPC: 4 cumulative IPC: 4 (Simulation time: 04 hr 39 min 46 sec)
*** Reached end of trace: (0, "traces/canneal_big1.champsimtrace")
*** Reached end of trace: (4, "traces/canneal_big1.champsimtrace")
Heartbeat CPU 0 instructions: 80000014 cycles: 120195930 heartbeat IPC: 0.3382 cumulative IPC: 0.332 (Simulation time: 04 hr 40 min 13 sec)
Heartbeat CPU 4 instructions: 80000014 cycles: 120195931 heartbeat IPC: 0.3382 cumulative IPC: 0.3329 (Simulation time: 04 hr 40 min 13 sec)
*** Reached end of trace: (3, "traces/canneal_big0.champsimtrace")
Heartbeat CPU 3 instructions: 300000090 cycles: 120342859 heartbeat IPC: 2.528 cumulative IPC: 2.459 (Simulation time: 04 hr 40 min 33 sec)
*** Reached end of trace: (7, "traces/canneal_big0.champsimtrace")
Heartbeat CPU 7 instructions: 290000087 cycles: 120507220 heartbeat IPC: 2.389 cumulative IPC: 2.343 (Simulation time: 04 hr 40 min 56 sec)
*** Reached end of trace: (2, "traces/canneal_big3.champsimtrace")
*** Reached end of trace: (6, "traces/canneal_big3.champsimtrace")
*** Reached end of trace: (5, "traces/canneal_big2.champsimtrace")
*** Reached end of trace: (1, "traces/canneal_big2.champsimtrace")
*** Reached end of trace: (3, "traces/canneal_big0.champsimtrace")
*** Reached end of trace: (2, "traces/canneal_big3.champsimtrace")
*** Reached end of trace: (6, "traces/canneal_big3.champsimtrace")
Heartbeat CPU 2 instructions: 490000001 cycles: 122503650 heartbeat IPC: 4 cumulative IPC: 4 (Simulation time: 04 hr 45 min 33 sec)
Heartbeat CPU 6 instructions: 490000001 cycles: 122503657 heartbeat IPC: 4 cumulative IPC: 4 (Simulation time: 04 hr 45 min 33 sec)
*** Reached end of trace: (5, "traces/canneal_big2.champsimtrace")
*** Reached end of trace: (1, "traces/canneal_big2.champsimtrace")
Heartbeat CPU 5 instructions: 490000001 cycles: 122503805 heartbeat IPC: 4 cumulative IPC: 4 (Simulation time: 04 hr 45 min 34 sec)
Heartbeat CPU 1 instructions: 490000001 cycles: 122503810 heartbeat IPC: 4 cumulative IPC: 4 (Simulation time: 04 hr 45 min 34 sec)
*** Reached end of trace: (7, "traces/canneal_big0.champsimtrace")
*** Reached end of trace: (2, "traces/canneal_big3.champsimtrace")
*** Reached end of trace: (6, "traces/canneal_big3.champsimtrace")
*** Reached end of trace: (5, "traces/canneal_big2.champsimtrace")
*** Reached end of trace: (1, "traces/canneal_big2.champsimtrace")
*** Reached end of trace: (3, "traces/canneal_big0.champsimtrace")
Heartbeat CPU 3 instructions: 310000093 cycles: 124317280 heartbeat IPC: 2.516 cumulative IPC: 2.462 (Simulation time: 04 hr 49 min 45 sec)
*** Reached end of trace: (7, "traces/canneal_big0.champsimtrace")
Heartbeat CPU 7 instructions: 300000090 cycles: 124672381 heartbeat IPC: 2.401 cumulative IPC: 2.346 (Simulation time: 04 hr 50 min 35 sec)
*** Reached end of trace: (2, "traces/canneal_big3.champsimtrace")
*** Reached end of trace: (6, "traces/canneal_big3.champsimtrace")
Heartbeat CPU 2 instructions: 500000001 cycles: 125003650 heartbeat IPC: 4 cumulative IPC: 4 (Simulation time: 04 hr 51 min 22 sec)
Heartbeat CPU 6 instructions: 500000001 cycles: 125003657 heartbeat IPC: 4 cumulative IPC: 4 (Simulation time: 04 hr 51 min 22 sec)
*** Reached end of trace: (5, "traces/canneal_big2.champsimtrace")
*** Reached end of trace: (1, "traces/canneal_big2.champsimtrace")
Heartbeat CPU 5 instructions: 500000001 cycles: 125003805 heartbeat IPC: 4 cumulative IPC: 4 (Simulation time: 04 hr 51 min 22 sec)
Heartbeat CPU 1 instructions: 500000001 cycles: 125003810 heartbeat IPC: 4 cumulative IPC: 4 (Simulation time: 04 hr 51 min 22 sec)
*** Reached end of trace: (2, "traces/canneal_big3.champsimtrace")
*** Reached end of trace: (6, "traces/canneal_big3.champsimtrace")
*** Reached end of trace: (5, "traces/canneal_big2.champsimtrace")
*** Reached end of trace: (1, "traces/canneal_big2.champsimtrace")
*** Reached end of trace: (3, "traces/canneal_big0.champsimtrace")
*** Reached end of trace: (7, "traces/canneal_big0.champsimtrace")
*** Reached end of trace: (2, "traces/canneal_big3.champsimtrace")
*** Reached end of trace: (6, "traces/canneal_big3.champsimtrace")
Heartbeat CPU 2 instructions: 510000001 cycles: 127503650 heartbeat IPC: 4 cumulative IPC: 4 (Simulation time: 04 hr 57 min 08 sec)
Heartbeat CPU 6 instructions: 510000001 cycles: 127503657 heartbeat IPC: 4 cumulative IPC: 4 (Simulation time: 04 hr 57 min 08 sec)
*** Reached end of trace: (5, "traces/canneal_big2.champsimtrace")
*** Reached end of trace: (1, "traces/canneal_big2.champsimtrace")
Heartbeat CPU 5 instructions: 510000001 cycles: 127503805 heartbeat IPC: 4 cumulative IPC: 4 (Simulation time: 04 hr 57 min 08 sec)
Heartbeat CPU 1 instructions: 510000001 cycles: 127503810 heartbeat IPC: 4 cumulative IPC: 4 (Simulation time: 04 hr 57 min 08 sec)
*** Reached end of trace: (3, "traces/canneal_big0.champsimtrace")
Heartbeat CPU 3 instructions: 320000096 cycles: 128297912 heartbeat IPC: 2.512 cumulative IPC: 2.464 (Simulation time: 04 hr 58 min 58 sec)
*** Reached end of trace: (2, "traces/canneal_big3.champsimtrace")
*** Reached end of trace: (6, "traces/canneal_big3.champsimtrace")
*** Reached end of trace: (5, "traces/canneal_big2.champsimtrace")
*** Reached end of trace: (1, "traces/canneal_big2.champsimtrace")
*** Reached end of trace: (7, "traces/canneal_big0.champsimtrace")
Heartbeat CPU 7 instructions: 310000093 cycles: 128856137 heartbeat IPC: 2.39 cumulative IPC: 2.348 (Simulation time: 05 hr 00 min 16 sec)
*** Reached end of trace: (2, "traces/canneal_big3.champsimtrace")
*** Reached end of trace: (6, "traces/canneal_big3.champsimtrace")
Heartbeat CPU 2 instructions: 520000001 cycles: 130003650 heartbeat IPC: 4 cumulative IPC: 4 (Simulation time: 05 hr 02 min 55 sec)
*** Reached end of trace: (5, "traces/canneal_big2.champsimtrace")
Heartbeat CPU 6 instructions: 520000001 cycles: 130003657 heartbeat IPC: 4 cumulative IPC: 4 (Simulation time: 05 hr 02 min 55 sec)
*** Reached end of trace: (1, "traces/canneal_big2.champsimtrace")
Heartbeat CPU 5 instructions: 520000001 cycles: 130003805 heartbeat IPC: 4 cumulative IPC: 4 (Simulation time: 05 hr 02 min 55 sec)
Heartbeat CPU 1 instructions: 520000001 cycles: 130003810 heartbeat IPC: 4 cumulative IPC: 4 (Simulation time: 05 hr 02 min 55 sec)
*** Reached end of trace: (3, "traces/canneal_big0.champsimtrace")
[...]
cpu4->cpu4_L1I PREFETCH     ACCESS:          0 HIT:          0 MISS:          0 MSHR_MERGE:          0
cpu4->cpu4_L1I WRITE        ACCESS:          0 HIT:          0 MISS:          0 MSHR_MERGE:          0
cpu4->cpu4_L1I TRANSLATION  ACCESS:          0 HIT:          0 MISS:          0 MSHR_MERGE:          0
cpu4->cpu4_L1I PREFETCH REQUESTED:          0 ISSUED:          0 USEFUL:          0 USELESS:          0
cpu4->cpu4_L1I AVERAGE MISS LATENCY: 143.5 cycles
cpu4_L1I COHERENCE INVALIDATIONS:          0
cpu4_L1I COHERENCE WRITE-HIT OTHER-SHARER EVENTS:          0
cpu4->cpu4_L1D TOTAL        ACCESS:     392972 HIT:       3764 MISS:     389208 MSHR_MERGE:          0
cpu4->cpu4_L1D LOAD         ACCESS:          0 HIT:          0 MISS:          0 MSHR_MERGE:          0
cpu4->cpu4_L1D RFO          ACCESS:          0 HIT:          0 MISS:          0 MSHR_MERGE:          0
cpu4->cpu4_L1D PREFETCH     ACCESS:          0 HIT:          0 MISS:          0 MSHR_MERGE:          0
cpu4->cpu4_L1D WRITE        ACCESS:          0 HIT:          0 MISS:          0 MSHR_MERGE:          0
cpu4->cpu4_L1D TRANSLATION  ACCESS:     392972 HIT:       3764 MISS:     389208 MSHR_MERGE:          0
cpu4->cpu4_L1D PREFETCH REQUESTED:          0 ISSUED:          0 USEFUL:          0 USELESS:          0
cpu4->cpu4_L1D AVERAGE MISS LATENCY: 246.5 cycles
cpu4_L1D COHERENCE INVALIDATIONS:          0
cpu4_L1D COHERENCE WRITE-HIT OTHER-SHARER EVENTS:          0
cpu4->cpu4_ITLB TOTAL        ACCESS:   32012833 HIT:   29744801 MISS:    2268032 MSHR_MERGE:      44421
cpu4->cpu4_ITLB LOAD         ACCESS:   32012833 HIT:   29744801 MISS:    2268032 MSHR_MERGE:      44421
cpu4->cpu4_ITLB RFO          ACCESS:          0 HIT:          0 MISS:          0 MSHR_MERGE:          0
cpu4->cpu4_ITLB PREFETCH     ACCESS:          0 HIT:          0 MISS:          0 MSHR_MERGE:          0
cpu4->cpu4_ITLB WRITE        ACCESS:          0 HIT:          0 MISS:          0 MSHR_MERGE:          0
cpu4->cpu4_ITLB TRANSLATION  ACCESS:          0 HIT:          0 MISS:          0 MSHR_MERGE:          0
cpu4->cpu4_ITLB PREFETCH REQUESTED:          0 ISSUED:          0 USEFUL:          0 USELESS:          0
cpu4->cpu4_ITLB AVERAGE MISS LATENCY: 48.31 cycles
cpu4_ITLB COHERENCE INVALIDATIONS:          0
cpu4_ITLB COHERENCE WRITE-HIT OTHER-SHARER EVENTS:          0
cpu4_DTLB COHERENCE INVALIDATIONS:          0
cpu4_DTLB COHERENCE WRITE-HIT OTHER-SHARER EVENTS:          0
cpu3->cpu3_STLB TOTAL        ACCESS:     277465 HIT:     277465 MISS:          0 MSHR_MERGE:          0
cpu3->cpu3_STLB LOAD         ACCESS:     277465 HIT:     277465 MISS:          0 MSHR_MERGE:          0
cpu3->cpu3_STLB RFO          ACCESS:          0 HIT:          0 MISS:          0 MSHR_MERGE:          0
cpu3->cpu3_STLB PREFETCH     ACCESS:          0 HIT:          0 MISS:          0 MSHR_MERGE:          0
cpu3->cpu3_STLB WRITE        ACCESS:          0 HIT:          0 MISS:          0 MSHR_MERGE:          0
cpu3->cpu3_STLB TRANSLATION  ACCESS:          0 HIT:          0 MISS:          0 MSHR_MERGE:          0
cpu3->cpu3_STLB PREFETCH REQUESTED:          0 ISSUED:          0 USEFUL:          0 USELESS:          0
cpu3->cpu3_STLB AVERAGE MISS LATENCY: - cycles
cpu3_STLB COHERENCE INVALIDATIONS:          0
cpu3_STLB COHERENCE WRITE-HIT OTHER-SHARER EVENTS:          0
cpu3->cpu3_L2C TOTAL        ACCESS:    8880510 HIT:    4308683 MISS:    4571827 MSHR_MERGE:          0
cpu3->cpu3_L2C LOAD         ACCESS:    1399521 HIT:     473439 MISS:     926082 MSHR_MERGE:          0
cpu3->cpu3_L2C RFO          ACCESS:    3711674 HIT:      66065 MISS:    3645609 MSHR_MERGE:          0
cpu3->cpu3_L2C PREFETCH     ACCESS:          0 HIT:          0 MISS:          0 MSHR_MERGE:          0
cpu3->cpu3_L2C WRITE        ACCESS:    3769315 HIT:    3769179 MISS:        136 MSHR_MERGE:          0
cpu3->cpu3_L2C TRANSLATION  ACCESS:          0 HIT:          0 MISS:          0 MSHR_MERGE:          0
cpu3->cpu3_L2C PREFETCH REQUESTED:          0 ISSUED:          0 USEFUL:          0 USELESS:          0
cpu3->cpu3_L2C AVERAGE MISS LATENCY: 59.65 cycles
cpu3_L2C COHERENCE INVALIDATIONS:          0
cpu3_L2C COHERENCE WRITE-HIT OTHER-SHARER EVENTS:          0
cpu3->cpu3_L1I TOTAL        ACCESS:  124542271 HIT:  124270189 MISS:     272082 MSHR_MERGE:      71246
cpu3->cpu3_L1I LOAD         ACCESS:  124542271 HIT:  124270189 MISS:     272082 MSHR_MERGE:      71246
cpu3->cpu3_L1I RFO          ACCESS:          0 HIT:          0 MISS:          0 MSHR_MERGE:          0
cpu3->cpu3_L1I PREFETCH     ACCESS:          0 HIT:          0 MISS:          0 MSHR_MERGE:          0
cpu3->cpu3_L1I WRITE        ACCESS:          0 HIT:          0 MISS:          0 MSHR_MERGE:          0
cpu3->cpu3_L1I TRANSLATION  ACCESS:          0 HIT:          0 MISS:          0 MSHR_MERGE:          0
cpu3->cpu3_L1I PREFETCH REQUESTED:          0 ISSUED:          0 USEFUL:          0 USELESS:          0
cpu3->cpu3_L1I AVERAGE MISS LATENCY: 135.3 cycles
cpu3_L1I COHERENCE INVALIDATIONS:          0
cpu3_L1I COHERENCE WRITE-HIT OTHER-SHARER EVENTS:          0
cpu3->cpu3_L1D TOTAL        ACCESS:  148926753 HIT:  133227631 MISS:   15699122 MSHR_MERGE:   10783602
cpu3->cpu3_L1D LOAD         ACCESS:   14512262 HIT:   12600092 MISS:    1912170 MSHR_MERGE:     713482
cpu3->cpu3_L1D RFO          ACCESS:          0 HIT:          0 MISS:          0 MSHR_MERGE:          0
cpu3->cpu3_L1D PREFETCH     ACCESS:          0 HIT:          0 MISS:          0 MSHR_MERGE:          0
cpu3->cpu3_L1D WRITE        ACCESS:  134414491 HIT:  120627539 MISS:   13786952 MSHR_MERGE:   10070120
cpu3->cpu3_L1D TRANSLATION  ACCESS:          0 HIT:          0 MISS:          0 MSHR_MERGE:          0
cpu3->cpu3_L1D PREFETCH REQUESTED:          0 ISSUED:          0 USEFUL:          0 USELESS:          0
cpu3->cpu3_L1D AVERAGE MISS LATENCY: 58.17 cycles
cpu3_L1D COHERENCE INVALIDATIONS:          0
cpu3_L1D COHERENCE WRITE-HIT OTHER-SHARER EVENTS:          0
cpu3->cpu3_ITLB TOTAL        ACCESS:  103694759 HIT:  103653483 MISS:      41276 MSHR_MERGE:      15968
cpu3->cpu3_ITLB LOAD         ACCESS:  103694759 HIT:  103653483 MISS:      41276 MSHR_MERGE:      15968
cpu3->cpu3_ITLB RFO          ACCESS:          0 HIT:          0 MISS:          0 MSHR_MERGE:          0
cpu3->cpu3_ITLB PREFETCH     ACCESS:          0 HIT:          0 MISS:          0 MSHR_MERGE:          0
cpu3->cpu3_ITLB WRITE        ACCESS:          0 HIT:          0 MISS:          0 MSHR_MERGE:          0
cpu3->cpu3_ITLB TRANSLATION  ACCESS:          0 HIT:          0 MISS:          0 MSHR_MERGE:          0
cpu3->cpu3_ITLB PREFETCH REQUESTED:          0 ISSUED:          0 USEFUL:          0 USELESS:          0
cpu3->cpu3_ITLB AVERAGE MISS LATENCY: 4.007 cycles
cpu3_ITLB COHERENCE INVALIDATIONS:          0
cpu3_ITLB COHERENCE WRITE-HIT OTHER-SHARER EVENTS:          0
cpu3->cpu3_DTLB TOTAL        ACCESS:  123962160 HIT:  123639824 MISS:     322336 MSHR_MERGE:      70179
cpu3->cpu3_DTLB LOAD         ACCESS:  123962160 HIT:  123639824 MISS:     322336 MSHR_MERGE:      70179
cpu3->cpu3_DTLB RFO          ACCESS:          0 HIT:          0 MISS:          0 MSHR_MERGE:          0
cpu3->cpu3_DTLB PREFETCH     ACCESS:          0 HIT:          0 MISS:          0 MSHR_MERGE:          0
cpu3->cpu3_DTLB WRITE        ACCESS:          0 HIT:          0 MISS:          0 MSHR_MERGE:          0
cpu3->cpu3_DTLB TRANSLATION  ACCESS:          0 HIT:          0 MISS:          0 MSHR_MERGE:          0
cpu3->cpu3_DTLB PREFETCH REQUESTED:          0 ISSUED:          0 USEFUL:          0 USELESS:          0
cpu3->cpu3_DTLB AVERAGE MISS LATENCY: 4 cycles
cpu3_DTLB COHERENCE INVALIDATIONS:          0
cpu3_DTLB COHERENCE WRITE-HIT OTHER-SHARER EVENTS:          0
cpu2_STLB COHERENCE INVALIDATIONS:          0
cpu2_STLB COHERENCE WRITE-HIT OTHER-SHARER EVENTS:          0
cpu2_L2C COHERENCE INVALIDATIONS:          0
cpu2_L2C COHERENCE WRITE-HIT OTHER-SHARER EVENTS:          0
cpu2->cpu2_L1I TOTAL        ACCESS:  156609022 HIT:  156609022 MISS:          0 MSHR_MERGE:          0
cpu2->cpu2_L1I LOAD         ACCESS:  156609022 HIT:  156609022 MISS:          0 MSHR_MERGE:          0
cpu2->cpu2_L1I RFO          ACCESS:          0 HIT:          0 MISS:          0 MSHR_MERGE:          0
cpu2->cpu2_L1I PREFETCH     ACCESS:          0 HIT:          0 MISS:          0 MSHR_MERGE:          0
cpu2->cpu2_L1I WRITE        ACCESS:          0 HIT:          0 MISS:          0 MSHR_MERGE:          0
cpu2->cpu2_L1I TRANSLATION  ACCESS:          0 HIT:          0 MISS:          0 MSHR_MERGE:          0
cpu2->cpu2_L1I PREFETCH REQUESTED:          0 ISSUED:          0 USEFUL:          0 USELESS:          0
cpu2->cpu2_L1I AVERAGE MISS LATENCY: - cycles
cpu2_L1I COHERENCE INVALIDATIONS:          0
cpu2_L1I COHERENCE WRITE-HIT OTHER-SHARER EVENTS:          0
cpu2_L1D COHERENCE INVALIDATIONS:          0
cpu2_L1D COHERENCE WRITE-HIT OTHER-SHARER EVENTS:          0
cpu2->cpu2_ITLB TOTAL        ACCESS:  136237221 HIT:  136237221 MISS:          0 MSHR_MERGE:          0
cpu2->cpu2_ITLB LOAD         ACCESS:  136237221 HIT:  136237221 MISS:          0 MSHR_MERGE:          0
cpu2->cpu2_ITLB RFO          ACCESS:          0 HIT:          0 MISS:          0 MSHR_MERGE:          0
cpu2->cpu2_ITLB PREFETCH     ACCESS:          0 HIT:          0 MISS:          0 MSHR_MERGE:          0
cpu2->cpu2_ITLB WRITE        ACCESS:          0 HIT:          0 MISS:          0 MSHR_MERGE:          0
cpu2->cpu2_ITLB TRANSLATION  ACCESS:          0 HIT:          0 MISS:          0 MSHR_MERGE:          0
cpu2->cpu2_ITLB PREFETCH REQUESTED:          0 ISSUED:          0 USEFUL:          0 USELESS:          0
cpu2->cpu2_ITLB AVERAGE MISS LATENCY: - cycles
cpu2_ITLB COHERENCE INVALIDATIONS:          0
cpu2_ITLB COHERENCE WRITE-HIT OTHER-SHARER EVENTS:          0
cpu2_DTLB COHERENCE INVALIDATIONS:          0
cpu2_DTLB COHERENCE WRITE-HIT OTHER-SHARER EVENTS:          0
cpu1_STLB COHERENCE INVALIDATIONS:          0
cpu1_STLB COHERENCE WRITE-HIT OTHER-SHARER EVENTS:          0
cpu1_L2C COHERENCE INVALIDATIONS:          0
cpu1_L2C COHERENCE WRITE-HIT OTHER-SHARER EVENTS:          0
cpu1->cpu1_L1I TOTAL        ACCESS:  170328843 HIT:  170328843 MISS:          0 MSHR_MERGE:          0
cpu1->cpu1_L1I LOAD         ACCESS:  170328843 HIT:  170328843 MISS:          0 MSHR_MERGE:          0
cpu1->cpu1_L1I RFO          ACCESS:          0 HIT:          0 MISS:          0 MSHR_MERGE:          0
cpu1->cpu1_L1I PREFETCH     ACCESS:          0 HIT:          0 MISS:          0 MSHR_MERGE:          0
cpu1->cpu1_L1I WRITE        ACCESS:          0 HIT:          0 MISS:          0 MSHR_MERGE:          0
cpu1->cpu1_L1I TRANSLATION  ACCESS:          0 HIT:          0 MISS:          0 MSHR_MERGE:          0
cpu1->cpu1_L1I PREFETCH REQUESTED:          0 ISSUED:          0 USEFUL:          0 USELESS:          0
cpu1->cpu1_L1I AVERAGE MISS LATENCY: - cycles
cpu1_L1I COHERENCE INVALIDATIONS:          0
cpu1_L1I COHERENCE WRITE-HIT OTHER-SHARER EVENTS:          0
cpu1_L1D COHERENCE INVALIDATIONS:          0
cpu1_L1D COHERENCE WRITE-HIT OTHER-SHARER EVENTS:          0
cpu1->cpu1_ITLB TOTAL        ACCESS:  142119742 HIT:  142119742 MISS:          0 MSHR_MERGE:          0
cpu1->cpu1_ITLB LOAD         ACCESS:  142119742 HIT:  142119742 MISS:          0 MSHR_MERGE:          0
cpu1->cpu1_ITLB RFO          ACCESS:          0 HIT:          0 MISS:          0 MSHR_MERGE:          0
cpu1->cpu1_ITLB PREFETCH     ACCESS:          0 HIT:          0 MISS:          0 MSHR_MERGE:          0
cpu1->cpu1_ITLB WRITE        ACCESS:          0 HIT:          0 MISS:          0 MSHR_MERGE:          0
cpu1->cpu1_ITLB TRANSLATION  ACCESS:          0 HIT:          0 MISS:          0 MSHR_MERGE:          0
cpu1->cpu1_ITLB PREFETCH REQUESTED:          0 ISSUED:          0 USEFUL:          0 USELESS:          0
cpu1->cpu1_ITLB AVERAGE MISS LATENCY: - cycles
cpu1_ITLB COHERENCE INVALIDATIONS:          0
cpu1_ITLB COHERENCE WRITE-HIT OTHER-SHARER EVENTS:          0
cpu1_DTLB COHERENCE INVALIDATIONS:          0
cpu1_DTLB COHERENCE WRITE-HIT OTHER-SHARER EVENTS:          0
cpu0->cpu0_STLB TOTAL        ACCESS:    2220894 HIT:    2024675 MISS:     196219 MSHR_MERGE:          0
cpu0->cpu0_STLB LOAD         ACCESS:    2220894 HIT:    2024675 MISS:     196219 MSHR_MERGE:          0
cpu0->cpu0_STLB RFO          ACCESS:          0 HIT:          0 MISS:          0 MSHR_MERGE:          0
cpu0->cpu0_STLB PREFETCH     ACCESS:          0 HIT:          0 MISS:          0 MSHR_MERGE:          0
cpu0->cpu0_STLB WRITE        ACCESS:          0 HIT:          0 MISS:          0 MSHR_MERGE:          0
cpu0->cpu0_STLB TRANSLATION  ACCESS:          0 HIT:          0 MISS:          0 MSHR_MERGE:          0
cpu0->cpu0_STLB PREFETCH REQUESTED:          0 ISSUED:          0 USEFUL:          0 USELESS:          0
cpu0->cpu0_STLB AVERAGE MISS LATENCY: 496.3 cycles
cpu0_STLB COHERENCE INVALIDATIONS:          0
cpu0_STLB COHERENCE WRITE-HIT OTHER-SHARER EVENTS:          0
cpu0->cpu0_L2C TOTAL        ACCESS:    2352664 HIT:     412428 MISS:    1940236 MSHR_MERGE:          0
cpu0->cpu0_L2C LOAD         ACCESS:    1963838 HIT:     411288 MISS:    1552550 MSHR_MERGE:          0
cpu0->cpu0_L2C RFO          ACCESS:          0 HIT:          0 MISS:          0 MSHR_MERGE:          0
cpu0->cpu0_L2C PREFETCH     ACCESS:          0 HIT:          0 MISS:          0 MSHR_MERGE:          0
cpu0->cpu0_L2C WRITE        ACCESS:          0 HIT:          0 MISS:          0 MSHR_MERGE:          0
cpu0->cpu0_L2C TRANSLATION  ACCESS:     388826 HIT:       1140 MISS:     387686 MSHR_MERGE:          0
cpu0->cpu0_L2C PREFETCH REQUESTED:          0 ISSUED:          0 USEFUL:          0 USELESS:          0
cpu0->cpu0_L2C AVERAGE MISS LATENCY: 187.1 cycles
cpu0_L2C COHERENCE INVALIDATIONS:          0
cpu0_L2C COHERENCE WRITE-HIT OTHER-SHARER EVENTS:          0
cpu0->cpu0_L1I TOTAL        ACCESS:   33413509 HIT:   31289027 MISS:    2124482 MSHR_MERGE:     160644
cpu0->cpu0_L1I LOAD         ACCESS:   33413509 HIT:   31289027 MISS:    2124482 MSHR_MERGE:     160644
cpu0->cpu0_L1I RFO          ACCESS:          0 HIT:          0 MISS:          0 MSHR_MERGE:          0
cpu0->cpu0_L1I PREFETCH     ACCESS:          0 HIT:          0 MISS:          0 MSHR_MERGE:          0
cpu0->cpu0_L1I WRITE        ACCESS:          0 HIT:          0 MISS:          0 MSHR_MERGE:          0
cpu0->cpu0_L1I TRANSLATION  ACCESS:          0 HIT:          0 MISS:          0 MSHR_MERGE:          0
cpu0->cpu0_L1I PREFETCH REQUESTED:          0 ISSUED:          0 USEFUL:          0 USELESS:          0
cpu0->cpu0_L1I AVERAGE MISS LATENCY: 145.8 cycles
cpu0_L1I COHERENCE INVALIDATIONS:          0
cpu0_L1I COHERENCE WRITE-HIT OTHER-SHARER EVENTS:          0
cpu0->cpu0_L1D TOTAL        ACCESS:     392574 HIT:       3748 MISS:     388826 MSHR_MERGE:          0
cpu0->cpu0_L1D LOAD         ACCESS:          0 HIT:          0 MISS:          0 MSHR_MERGE:          0
cpu0->cpu0_L1D RFO          ACCESS:          0 HIT:          0 MISS:          0 MSHR_MERGE:          0
cpu0->cpu0_L1D PREFETCH     ACCESS:          0 HIT:          0 MISS:          0 MSHR_MERGE:          0
cpu0->cpu0_L1D WRITE        ACCESS:          0 HIT:          0 MISS:          0 MSHR_MERGE:          0
cpu0->cpu0_L1D TRANSLATION  ACCESS:     392574 HIT:       3748 MISS:     388826 MSHR_MERGE:          0
cpu0->cpu0_L1D PREFETCH REQUESTED:          0 ISSUED:          0 USEFUL:          0 USELESS:          0
cpu0->cpu0_L1D AVERAGE MISS LATENCY: 244.4 cycles
cpu0_L1D COHERENCE INVALIDATIONS:          0
cpu0_L1D COHERENCE WRITE-HIT OTHER-SHARER EVENTS:          0
cpu0->cpu0_ITLB TOTAL        ACCESS:   32876071 HIT:   30604276 MISS:    2271795 MSHR_MERGE:      50901
cpu0->cpu0_ITLB LOAD         ACCESS:   32876071 HIT:   30604276 MISS:    2271795 MSHR_MERGE:      50901
cpu0->cpu0_ITLB RFO          ACCESS:          0 HIT:          0 MISS:          0 MSHR_MERGE:          0
cpu0->cpu0_ITLB PREFETCH     ACCESS:          0 HIT:          0 MISS:          0 MSHR_MERGE:          0
cpu0->cpu0_ITLB WRITE        ACCESS:          0 HIT:          0 MISS:          0 MSHR_MERGE:          0
cpu0->cpu0_ITLB TRANSLATION  ACCESS:          0 HIT:          0 MISS:          0 MSHR_MERGE:          0
cpu0->cpu0_ITLB PREFETCH REQUESTED:          0 ISSUED:          0 USEFUL:          0 USELESS:          0
cpu0->cpu0_ITLB AVERAGE MISS LATENCY: 47.93 cycles
cpu0_ITLB COHERENCE INVALIDATIONS:          0
cpu0_ITLB COHERENCE WRITE-HIT OTHER-SHARER EVENTS:          0
cpu0_DTLB COHERENCE INVALIDATIONS:          0
cpu0_DTLB COHERENCE WRITE-HIT OTHER-SHARER EVENTS:          0
cpu0->LLC TOTAL        ACCESS:    1940236 HIT:     402234 MISS:    1538002 MSHR_MERGE:     354486
cpu0->LLC LOAD         ACCESS:    1552550 HIT:     401912 MISS:    1150638 MSHR_MERGE:     354486
cpu0->LLC RFO          ACCESS:          0 HIT:          0 MISS:          0 MSHR_MERGE:          0
cpu0->LLC PREFETCH     ACCESS:          0 HIT:          0 MISS:          0 MSHR_MERGE:          0
cpu0->LLC WRITE        ACCESS:          0 HIT:          0 MISS:          0 MSHR_MERGE:          0
cpu0->LLC TRANSLATION  ACCESS:     387686 HIT:        322 MISS:     387364 MSHR_MERGE:          0
cpu0->LLC PREFETCH REQUESTED:          0 ISSUED:          0 USEFUL:          0 USELESS:          0
cpu0->LLC AVERAGE MISS LATENCY: 1061 cycles
cpu3->LLC TOTAL        ACCESS:    8255922 HIT:    6896316 MISS:    1359606 MSHR_MERGE:       5670
cpu3->LLC LOAD         ACCESS:     926082 HIT:     543645 MISS:     382437 MSHR_MERGE:       5329
cpu3->LLC RFO          ACCESS:    3645609 HIT:    3146280 MISS:     499329 MSHR_MERGE:        341
cpu3->LLC PREFETCH     ACCESS:          0 HIT:          0 MISS:          0 MSHR_MERGE:          0
cpu3->LLC WRITE        ACCESS:    3684231 HIT:    3206391 MISS:     477840 MSHR_MERGE:          0
cpu3->LLC TRANSLATION  ACCESS:          0 HIT:          0 MISS:          0 MSHR_MERGE:          0
cpu3->LLC PREFETCH REQUESTED:          0 ISSUED:          0 USEFUL:          0 USELESS:          0
cpu3->LLC AVERAGE MISS LATENCY: 620.3 cycles
cpu4->LLC TOTAL        ACCESS:    1942460 HIT:     409485 MISS:    1532975 MSHR_MERGE:     753011
cpu4->LLC LOAD         ACCESS:    1554535 HIT:     409071 MISS:    1145464 MSHR_MERGE:     753011
cpu4->LLC RFO          ACCESS:          0 HIT:          0 MISS:          0 MSHR_MERGE:          0
cpu4->LLC PREFETCH     ACCESS:          0 HIT:          0 MISS:          0 MSHR_MERGE:          0
cpu4->LLC WRITE        ACCESS:          0 HIT:          0 MISS:          0 MSHR_MERGE:          0
cpu4->LLC TRANSLATION  ACCESS:     387925 HIT:        414 MISS:     387511 MSHR_MERGE:          0
cpu4->LLC PREFETCH REQUESTED:          0 ISSUED:          0 USEFUL:          0 USELESS:          0
cpu4->LLC AVERAGE MISS LATENCY: 706.8 cycles
cpu7->LLC TOTAL        ACCESS:    7848547 HIT:    6578733 MISS:    1269814 MSHR_MERGE:      16750
cpu7->LLC LOAD         ACCESS:     882284 HIT:     519684 MISS:     362600 MSHR_MERGE:      15772
cpu7->LLC RFO          ACCESS:    3463892 HIT:    3001750 MISS:     462142 MSHR_MERGE:        978
cpu7->LLC PREFETCH     ACCESS:          0 HIT:          0 MISS:          0 MSHR_MERGE:          0
cpu7->LLC WRITE        ACCESS:    3502371 HIT:    3057299 MISS:     445072 MSHR_MERGE:          0
cpu7->LLC TRANSLATION  ACCESS:          0 HIT:          0 MISS:          0 MSHR_MERGE:          0
cpu7->LLC PREFETCH REQUESTED:          0 ISSUED:          0 USEFUL:          0 USELESS:          0
cpu7->LLC AVERAGE MISS LATENCY: 658.9 cycles
LLC COHERENCE INVALIDATIONS:    6458801
LLC COHERENCE WRITE-HIT OTHER-SHARER EVENTS:    6256117

DRAM Statistics

Channel 0 RQ ROW_BUFFER_HIT:      51638
  ROW_BUFFER_MISS:    3583972
  AVG DBUS CONGESTED CYCLE: 7.909
Channel 0 WQ ROW_BUFFER_HIT:     256555
  ROW_BUFFER_MISS:     714295
  FULL:        143
Channel 0 REFRESHES ISSUED:      24697

VMEM ALIASED FILLS (cross-CPU shared-page hits): 303858
