[VMEM] WARNING: physical memory size is smaller than virtual memory size.

*** ChampSim Multicore Out-of-Order Simulator ***
Warmup Instructions: 50000000
Simulation Instructions: 100000000
Number of CPUs: 8
Page size: 4096

Off-chip DRAM Size: 16 GiB Channels: 1 Width: 64-bit Data Rate: 3205 MT/s
*** Reached end of trace: (5, "traces/canneal_big3.champsimtrace")
*** Reached end of trace: (1, "traces/canneal_big3.champsimtrace")
*** Reached end of trace: (0, "traces/canneal_big2.champsimtrace")
*** Reached end of trace: (4, "traces/canneal_big2.champsimtrace")
*** Reached end of trace: (6, "traces/canneal_big0.champsimtrace")
*** Reached end of trace: (2, "traces/canneal_big0.champsimtrace")
*** Reached end of trace: (5, "traces/canneal_big3.champsimtrace")
*** Reached end of trace: (1, "traces/canneal_big3.champsimtrace")
Heartbeat CPU 5 instructions: 10000001 cycles: 2503657 heartbeat IPC: 3.994 cumulative IPC: 3.994 (Simulation time: 00 hr 06 min 09 sec)
Heartbeat CPU 1 instructions: 10000001 cycles: 2503657 heartbeat IPC: 3.994 cumulative IPC: 3.994 (Simulation time: 00 hr 06 min 09 sec)
*** Reached end of trace: (0, "traces/canneal_big2.champsimtrace")
*** Reached end of trace: (4, "traces/canneal_big2.champsimtrace")
Heartbeat CPU 0 instructions: 10000001 cycles: 2503804 heartbeat IPC: 3.994 cumulative IPC: 3.994 (Simulation time: 00 hr 06 min 09 sec)
Heartbeat CPU 4 instructions: 10000001 cycles: 2503805 heartbeat IPC: 3.994 cumulative IPC: 3.994 (Simulation time: 00 hr 06 min 09 sec)
*** Reached end of trace: (5, "traces/canneal_big3.champsimtrace")
*** Reached end of trace: (1, "traces/canneal_big3.champsimtrace")
*** Reached end of trace: (0, "traces/canneal_big2.champsimtrace")
*** Reached end of trace: (4, "traces/canneal_big2.champsimtrace")
*** Reached end of trace: (6, "traces/canneal_big0.champsimtrace")
Heartbeat CPU 6 instructions: 10000003 cycles: 3984755 heartbeat IPC: 2.51 cumulative IPC: 2.51 (Simulation time: 00 hr 09 min 39 sec)
*** Reached end of trace: (2, "traces/canneal_big0.champsimtrace")
Heartbeat CPU 2 instructions: 10000003 cycles: 3992496 heartbeat IPC: 2.505 cumulative IPC: 2.505 (Simulation time: 00 hr 09 min 41 sec)
*** Reached end of trace: (3, "traces/canneal_big1.champsimtrace")
*** Reached end of trace: (7, "traces/canneal_big1.champsimtrace")
*** Reached end of trace: (5, "traces/canneal_big3.champsimtrace")
*** Reached end of trace: (1, "traces/canneal_big3.champsimtrace")
Heartbeat CPU 5 instructions: 20000001 cycles: 5003657 heartbeat IPC: 4 cumulative IPC: 3.997 (Simulation time: 00 hr 12 min 12 sec)
Heartbeat CPU 1 instructions: 20000001 cycles: 5003657 heartbeat IPC: 4 cumulative IPC: 3.997 (Simulation time: 00 hr 12 min 12 sec)
*** Reached end of trace: (0, "traces/canneal_big2.champsimtrace")
*** Reached end of trace: (4, "traces/canneal_big2.champsimtrace")
Heartbeat CPU 0 instructions: 20000001 cycles: 5003804 heartbeat IPC: 4 cumulative IPC: 3.997 (Simulation time: 00 hr 12 min 12 sec)
Heartbeat CPU 4 instructions: 20000001 cycles: 5003805 heartbeat IPC: 4 cumulative IPC: 3.997 (Simulation time: 00 hr 12 min 12 sec)
*** Reached end of trace: (6, "traces/canneal_big0.champsimtrace")
*** Reached end of trace: (2, "traces/canneal_big0.champsimtrace")
*** Reached end of trace: (5, "traces/canneal_big3.champsimtrace")
*** Reached end of trace: (1, "traces/canneal_big3.champsimtrace")
*** Reached end of trace: (0, "traces/canneal_big2.champsimtrace")
*** Reached end of trace: (4, "traces/canneal_big2.champsimtrace")
*** Reached end of trace: (3, "traces/canneal_big1.champsimtrace")
Heartbeat CPU 3 instructions: 10000002 cycles: 7297309 heartbeat IPC: 1.37 cumulative IPC: 1.37 (Simulation time: 00 hr 17 min 51 sec)
*** Reached end of trace: (7, "traces/canneal_big1.champsimtrace")
Heartbeat CPU 7 instructions: 10000002 cycles: 7297466 heartbeat IPC: 1.37 cumulative IPC: 1.37 (Simulation time: 00 hr 17 min 51 sec)
*** Reached end of trace: (5, "traces/canneal_big3.champsimtrace")
*** Reached end of trace: (1, "traces/canneal_big3.champsimtrace")
Heartbeat CPU 5 instructions: 30000001 cycles: 7503657 heartbeat IPC: 4 cumulative IPC: 3.998 (Simulation time: 00 hr 18 min 20 sec)
Heartbeat CPU 1 instructions: 30000001 cycles: 7503657 heartbeat IPC: 4 cumulative IPC: 3.998 (Simulation time: 00 hr 18 min 20 sec)
*** Reached end of trace: (0, "traces/canneal_big2.champsimtrace")
*** Reached end of trace: (4, "traces/canneal_big2.champsimtrace")
Heartbeat CPU 0 instructions: 30000001 cycles: 7503804 heartbeat IPC: 4 cumulative IPC: 3.998 (Simulation time: 00 hr 18 min 20 sec)
Heartbeat CPU 4 instructions: 30000001 cycles: 7503805 heartbeat IPC: 4 cumulative IPC: 3.998 (Simulation time: 00 hr 18 min 20 sec)
*** Reached end of trace: (6, "traces/canneal_big0.champsimtrace")
Heartbeat CPU 6 instructions: 20000006 cycles: 7825055 heartbeat IPC: 2.604 cumulative IPC: 2.556 (Simulation time: 00 hr 19 min 06 sec)
*** Reached end of trace: (2, "traces/canneal_big0.champsimtrace")
Heartbeat CPU 2 instructions: 20000006 cycles: 7847531 heartbeat IPC: 2.594 cumulative IPC: 2.549 (Simulation time: 00 hr 19 min 09 sec)
*** Reached end of trace: (5, "traces/canneal_big3.champsimtrace")
*** Reached end of trace: (1, "traces/canneal_big3.champsimtrace")
*** Reached end of trace: (0, "traces/canneal_big2.champsimtrace")
*** Reached end of trace: (4, "traces/canneal_big2.champsimtrace")
*** Reached end of trace: (6, "traces/canneal_big0.champsimtrace")
*** Reached end of trace: (2, "traces/canneal_big0.champsimtrace")
*** Reached end of trace: (5, "traces/canneal_big3.champsimtrace")
*** Reached end of trace: (1, "traces/canneal_big3.champsimtrace")
Heartbeat CPU 5 instructions: 40000001 cycles: 10003657 heartbeat IPC: 4 cumulative IPC: 3.999 (Simulation time: 00 hr 24 min 28 sec)
Heartbeat CPU 1 instructions: 40000001 cycles: 10003657 heartbeat IPC: 4 cumulative IPC: 3.999 (Simulation time: 00 hr 24 min 28 sec)
*** Reached end of trace: (0, "traces/canneal_big2.champsimtrace")
*** Reached end of trace: (4, "traces/canneal_big2.champsimtrace")
Heartbeat CPU 0 instructions: 40000001 cycles: 10003804 heartbeat IPC: 4 cumulative IPC: 3.998 (Simulation time: 00 hr 24 min 28 sec)
Heartbeat CPU 4 instructions: 40000001 cycles: 10003805 heartbeat IPC: 4 cumulative IPC: 3.998 (Simulation time: 00 hr 24 min 28 sec)
*** Reached end of trace: (3, "traces/canneal_big1.champsimtrace")
*** Reached end of trace: (7, "traces/canneal_big1.champsimtrace")
*** Reached end of trace: (5, "traces/canneal_big3.champsimtrace")
*** Reached end of trace: (1, "traces/canneal_big3.champsimtrace")
*** Reached end of trace: (0, "traces/canneal_big2.champsimtrace")
*** Reached end of trace: (4, "traces/canneal_big2.champsimtrace")
*** Reached end of trace: (6, "traces/canneal_big0.champsimtrace")
Heartbeat CPU 6 instructions: 30000009 cycles: 11665301 heartbeat IPC: 2.604 cumulative IPC: 2.572 (Simulation time: 00 hr 28 min 39 sec)
*** Reached end of trace: (2, "traces/canneal_big0.champsimtrace")
Heartbeat CPU 2 instructions: 30000009 cycles: 11702892 heartbeat IPC: 2.594 cumulative IPC: 2.563 (Simulation time: 00 hr 28 min 45 sec)
*** Reached end of trace: (5, "traces/canneal_big3.champsimtrace")
*** Reached end of trace: (1, "traces/canneal_big3.champsimtrace")
Heartbeat CPU 5 instructions: 50000001 cycles: 12503657 heartbeat IPC: 4 cumulative IPC: 3.999 (Simulation time: 00 hr 30 min 46 sec)
Heartbeat CPU 1 instructions: 50000001 cycles: 12503657 heartbeat IPC: 4 cumulative IPC: 3.999 (Simulation time: 00 hr 30 min 46 sec)
Warmup finished CPU 5 instructions: 50000001 cycles: 12503657 cumulative IPC: 3.999 (Simulation time: 00 hr 30 min 46 sec)
Warmup finished CPU 1 instructions: 50000001 cycles: 12503657 cumulative IPC: 3.999 (Simulation time: 00 hr 30 min 46 sec)
*** Reached end of trace: (0, "traces/canneal_big2.champsimtrace")
*** Reached end of trace: (4, "traces/canneal_big2.champsimtrace")
Heartbeat CPU 0 instructions: 50000001 cycles: 12503804 heartbeat IPC: 4 cumulative IPC: 3.999 (Simulation time: 00 hr 30 min 46 sec)
Warmup finished CPU 0 instructions: 50000001 cycles: 12503804 cumulative IPC: 3.999 (Simulation time: 00 hr 30 min 46 sec)
Heartbeat CPU 4 instructions: 50000001 cycles: 12503805 heartbeat IPC: 4 cumulative IPC: 3.999 (Simulation time: 00 hr 30 min 46 sec)
Warmup finished CPU 4 instructions: 50000001 cycles: 12503805 cumulative IPC: 3.999 (Simulation time: 00 hr 30 min 46 sec)
*** Reached end of trace: (3, "traces/canneal_big1.champsimtrace")
Heartbeat CPU 3 instructions: 20000004 cycles: 12987398 heartbeat IPC: 1.757 cumulative IPC: 1.54 (Simulation time: 00 hr 31 min 56 sec)
*** Reached end of trace: (7, "traces/canneal_big1.champsimtrace")
Heartbeat CPU 7 instructions: 20000004 cycles: 12988069 heartbeat IPC: 1.757 cumulative IPC: 1.54 (Simulation time: 00 hr 31 min 56 sec)
*** Reached end of trace: (6, "traces/canneal_big0.champsimtrace")
*** Reached end of trace: (2, "traces/canneal_big0.champsimtrace")
*** Reached end of trace: (5, "traces/canneal_big3.champsimtrace")
*** Reached end of trace: (1, "traces/canneal_big3.champsimtrace")
*** Reached end of trace: (0, "traces/canneal_big2.champsimtrace")
*** Reached end of trace: (4, "traces/canneal_big2.champsimtrace")
*** Reached end of trace: (5, "traces/canneal_big3.champsimtrace")
*** Reached end of trace: (1, "traces/canneal_big3.champsimtrace")
Heartbeat CPU 5 instructions: 60000001 cycles: 15003657 heartbeat IPC: 4 cumulative IPC: 3.999 (Simulation time: 00 hr 36 min 47 sec)
Heartbeat CPU 1 instructions: 60000001 cycles: 15003657 heartbeat IPC: 4 cumulative IPC: 3.999 (Simulation time: 00 hr 36 min 47 sec)
*** Reached end of trace: (0, "traces/canneal_big2.champsimtrace")
*** Reached end of trace: (4, "traces/canneal_big2.champsimtrace")
Heartbeat CPU 0 instructions: 60000001 cycles: 15003804 heartbeat IPC: 4 cumulative IPC: 3.999 (Simulation time: 00 hr 36 min 47 sec)
Heartbeat CPU 4 instructions: 60000001 cycles: 15003805 heartbeat IPC: 4 cumulative IPC: 3.999 (Simulation time: 00 hr 36 min 47 sec)
*** Reached end of trace: (6, "traces/canneal_big0.champsimtrace")
Heartbeat CPU 6 instructions: 40000012 cycles: 15505467 heartbeat IPC: 2.604 cumulative IPC: 2.58 (Simulation time: 00 hr 37 min 58 sec)
*** Reached end of trace: (2, "traces/canneal_big0.champsimtrace")
Heartbeat CPU 2 instructions: 40000012 cycles: 15558168 heartbeat IPC: 2.594 cumulative IPC: 2.571 (Simulation time: 00 hr 38 min 06 sec)
*** Reached end of trace: (3, "traces/canneal_big1.champsimtrace")
*** Reached end of trace: (7, "traces/canneal_big1.champsimtrace")
*** Reached end of trace: (5, "traces/canneal_big3.champsimtrace")
*** Reached end of trace: (1, "traces/canneal_big3.champsimtrace")
*** Reached end of trace: (0, "traces/canneal_big2.champsimtrace")
*** Reached end of trace: (4, "traces/canneal_big2.champsimtrace")
*** Reached end of trace: (6, "traces/canneal_big0.champsimtrace")
*** Reached end of trace: (2, "traces/canneal_big0.champsimtrace")
*** Reached end of trace: (5, "traces/canneal_big3.champsimtrace")
*** Reached end of trace: (1, "traces/canneal_big3.champsimtrace")
Heartbeat CPU 5 instructions: 70000001 cycles: 17503657 heartbeat IPC: 4 cumulative IPC: 3.999 (Simulation time: 00 hr 42 min 41 sec)
Heartbeat CPU 1 instructions: 70000001 cycles: 17503657 heartbeat IPC: 4 cumulative IPC: 3.999 (Simulation time: 00 hr 42 min 41 sec)
*** Reached end of trace: (0, "traces/canneal_big2.champsimtrace")
*** Reached end of trace: (4, "traces/canneal_big2.champsimtrace")
Heartbeat CPU 0 instructions: 70000001 cycles: 17503804 heartbeat IPC: 4 cumulative IPC: 3.999 (Simulation time: 00 hr 42 min 41 sec)
Heartbeat CPU 4 instructions: 70000001 cycles: 17503805 heartbeat IPC: 4 cumulative IPC: 3.999 (Simulation time: 00 hr 42 min 41 sec)
*** Reached end of trace: (3, "traces/canneal_big1.champsimtrace")
Heartbeat CPU 3 instructions: 30000004 cycles: 18676786 heartbeat IPC: 1.758 cumulative IPC: 1.606 (Simulation time: 00 hr 45 min 25 sec)
*** Reached end of trace: (7, "traces/canneal_big1.champsimtrace")
Heartbeat CPU 7 instructions: 30000004 cycles: 18678875 heartbeat IPC: 1.757 cumulative IPC: 1.606 (Simulation time: 00 hr 45 min 25 sec)
*** Reached end of trace: (5, "traces/canneal_big3.champsimtrace")
*** Reached end of trace: (1, "traces/canneal_big3.champsimtrace")
*** Reached end of trace: (0, "traces/canneal_big2.champsimtrace")
*** Reached end of trace: (4, "traces/canneal_big2.champsimtrace")
*** Reached end of trace: (6, "traces/canneal_big0.champsimtrace")
Warmup finished CPU 6 instructions: 50000000 cycles: 19345675 cumulative IPC: 2.585 (Simulation time: 00 hr 46 min 56 sec)
Heartbeat CPU 6 instructions: 50000015 cycles: 19345678 heartbeat IPC: 2.604 cumulative IPC: 2.585 (Simulation time: 00 hr 46 min 56 sec)
*** Reached end of trace: (2, "traces/canneal_big0.champsimtrace")
Warmup finished CPU 2 instructions: 50000000 cycles: 19413436 cumulative IPC: 2.576 (Simulation time: 00 hr 47 min 06 sec)
Heartbeat CPU 2 instructions: 50000015 cycles: 19413439 heartbeat IPC: 2.594 cumulative IPC: 2.576 (Simulation time: 00 hr 47 min 06 sec)
*** Reached end of trace: (5, "traces/canneal_big3.champsimtrace")
*** Reached end of trace: (1, "traces/canneal_big3.champsimtrace")
Heartbeat CPU 5 instructions: 80000001 cycles: 20003657 heartbeat IPC: 4 cumulative IPC: 3.999 (Simulation time: 00 hr 48 min 31 sec)
Heartbeat CPU 1 instructions: 80000001 cycles: 20003657 heartbeat IPC: 4 cumulative IPC: 3.999 (Simulation time: 00 hr 48 min 31 sec)
*** Reached end of trace: (0, "traces/canneal_big2.champsimtrace")
*** Reached end of trace: (4, "traces/canneal_big2.champsimtrace")
Heartbeat CPU 0 instructions: 80000001 cycles: 20003804 heartbeat IPC: 4 cumulative IPC: 3.999 (Simulation time: 00 hr 48 min 31 sec)
Heartbeat CPU 4 instructions: 80000001 cycles: 20003805 heartbeat IPC: 4 cumulative IPC: 3.999 (Simulation time: 00 hr 48 min 31 sec)
*** Reached end of trace: (5, "traces/canneal_big3.champsimtrace")
*** Reached end of trace: (1, "traces/canneal_big3.champsimtrace")
*** Reached end of trace: (0, "traces/canneal_big2.champsimtrace")
*** Reached end of trace: (4, "traces/canneal_big2.champsimtrace")
*** Reached end of trace: (6, "traces/canneal_big0.champsimtrace")
*** Reached end of trace: (2, "traces/canneal_big0.champsimtrace")
*** Reached end of trace: (3, "traces/canneal_big1.champsimtrace")
*** Reached end of trace: (7, "traces/canneal_big1.champsimtrace")
*** Reached end of trace: (5, "traces/canneal_big3.champsimtrace")
*** Reached end of trace: (1, "traces/canneal_big3.champsimtrace")
Heartbeat CPU 5 instructions: 90000001 cycles: 22503657 heartbeat IPC: 4 cumulative IPC: 3.999 (Simulation time: 00 hr 54 min 17 sec)
Heartbeat CPU 1 instructions: 90000001 cycles: 22503657 heartbeat IPC: 4 cumulative IPC: 3.999 (Simulation time: 00 hr 54 min 17 sec)
*** Reached end of trace: (0, "traces/canneal_big2.champsimtrace")
*** Reached end of trace: (4, "traces/canneal_big2.champsimtrace")
Heartbeat CPU 0 instructions: 90000001 cycles: 22503804 heartbeat IPC: 4 cumulative IPC: 3.999 (Simulation time: 00 hr 54 min 17 sec)
Heartbeat CPU 4 instructions: 90000001 cycles: 22503805 heartbeat IPC: 4 cumulative IPC: 3.999 (Simulation time: 00 hr 54 min 17 sec)
*** Reached end of trace: (6, "traces/canneal_big0.champsimtrace")
Heartbeat CPU 6 instructions: 60000018 cycles: 23185714 heartbeat IPC: 2.604 cumulative IPC: 2.588 (Simulation time: 00 hr 55 min 50 sec)
*** Reached end of trace: (2, "traces/canneal_big0.champsimtrace")
Heartbeat CPU 2 instructions: 60000018 cycles: 23269145 heartbeat IPC: 2.594 cumulative IPC: 2.579 (Simulation time: 00 hr 56 min 02 sec)
*** Reached end of trace: (5, "traces/canneal_big3.champsimtrace")
*** Reached end of trace: (1, "traces/canneal_big3.champsimtrace")
*** Reached end of trace: (0, "traces/canneal_big2.champsimtrace")
*** Reached end of trace: (4, "traces/canneal_big2.champsimtrace")
*** Reached end of trace: (3, "traces/canneal_big1.champsimtrace")
Heartbeat CPU 3 instructions: 40000006 cycles: 24365741 heartbeat IPC: 1.758 cumulative IPC: 1.642 (Simulation time: 00 hr 58 min 38 sec)
*** Reached end of trace: (7, "traces/canneal_big1.champsimtrace")
Heartbeat CPU 7 instructions: 40000006 cycles: 24370359 heartbeat IPC: 1.757 cumulative IPC: 1.641 (Simulation time: 00 hr 58 min 38 sec)
*** Reached end of trace: (5, "traces/canneal_big3.champsimtrace")
*** Reached end of trace: (1, "traces/canneal_big3.champsimtrace")
Heartbeat CPU 5 instructions: 100000001 cycles: 25003657 heartbeat IPC: 4 cumulative IPC: 3.999 (Simulation time: 01 hr 00 min 04 sec)
Heartbeat CPU 1 instructions: 100000001 cycles: 25003657 heartbeat IPC: 4 cumulative IPC: 3.999 (Simulation time: 01 hr 00 min 04 sec)
*** Reached end of trace: (0, "traces/canneal_big2.champsimtrace")
*** Reached end of trace: (4, "traces/canneal_big2.champsimtrace")
Heartbeat CPU 0 instructions: 100000001 cycles: 25003804 heartbeat IPC: 4 cumulative IPC: 3.999 (Simulation time: 01 hr 00 min 04 sec)
Heartbeat CPU 4 instructions: 100000001 cycles: 25003805 heartbeat IPC: 4 cumulative IPC: 3.999 (Simulation time: 01 hr 00 min 04 sec)
*** Reached end of trace: (6, "traces/canneal_big0.champsimtrace")
*** Reached end of trace: (2, "traces/canneal_big0.champsimtrace")
*** Reached end of trace: (5, "traces/canneal_big3.champsimtrace")
*** Reached end of trace: (1, "traces/canneal_big3.champsimtrace")
*** Reached end of trace: (0, "traces/canneal_big2.champsimtrace")
*** Reached end of trace: (4, "traces/canneal_big2.champsimtrace")
*** Reached end of trace: (6, "traces/canneal_big0.champsimtrace")
Heartbeat CPU 6 instructions: 70000021 cycles: 27025710 heartbeat IPC: 2.604 cumulative IPC: 2.59 (Simulation time: 01 hr 04 min 43 sec)
*** Reached end of trace: (2, "traces/canneal_big0.champsimtrace")
Heartbeat CPU 2 instructions: 70000021 cycles: 27124781 heartbeat IPC: 2.594 cumulative IPC: 2.581 (Simulation time: 01 hr 04 min 57 sec)
*** Reached end of trace: (3, "traces/canneal_big1.champsimtrace")
*** Reached end of trace: (7, "traces/canneal_big1.champsimtrace")
*** Reached end of trace: (5, "traces/canneal_big3.champsimtrace")
*** Reached end of trace: (1, "traces/canneal_big3.champsimtrace")
Heartbeat CPU 5 instructions: 110000001 cycles: 27503657 heartbeat IPC: 4 cumulative IPC: 3.999 (Simulation time: 01 hr 05 min 52 sec)
Heartbeat CPU 1 instructions: 110000001 cycles: 27503657 heartbeat IPC: 4 cumulative IPC: 3.999 (Simulation time: 01 hr 05 min 52 sec)
*** Reached end of trace: (0, "traces/canneal_big2.champsimtrace")
*** Reached end of trace: (4, "traces/canneal_big2.champsimtrace")
Heartbeat CPU 0 instructions: 110000001 cycles: 27503804 heartbeat IPC: 4 cumulative IPC: 3.999 (Simulation time: 01 hr 05 min 52 sec)
Heartbeat CPU 4 instructions: 110000001 cycles: 27503805 heartbeat IPC: 4 cumulative IPC: 3.999 (Simulation time: 01 hr 05 min 52 sec)
*** Reached end of trace: (5, "traces/canneal_big3.champsimtrace")
*** Reached end of trace: (1, "traces/canneal_big3.champsimtrace")
*** Reached end of trace: (0, "traces/canneal_big2.champsimtrace")
*** Reached end of trace: (4, "traces/canneal_big2.champsimtrace")
*** Reached end of trace: (6, "traces/canneal_big0.champsimtrace")
*** Reached end of trace: (2, "traces/canneal_big0.champsimtrace")
*** Reached end of trace: (5, "traces/canneal_big3.champsimtrace")
*** Reached end of trace: (1, "traces/canneal_big3.champsimtrace")
Heartbeat CPU 5 instructions: 120000001 cycles: 30003657 heartbeat IPC: 4 cumulative IPC: 4 (Simulation time: 01 hr 11 min 40 sec)
Heartbeat CPU 1 instructions: 120000001 cycles: 30003657 heartbeat IPC: 4 cumulative IPC: 4 (Simulation time: 01 hr 11 min 40 sec)
*** Reached end of trace: (0, "traces/canneal_big2.champsimtrace")
*** Reached end of trace: (4, "traces/canneal_big2.champsimtrace")
Heartbeat CPU 0 instructions: 120000001 cycles: 30003804 heartbeat IPC: 4 cumulative IPC: 3.999 (Simulation time: 01 hr 11 min 40 sec)
Heartbeat CPU 4 instructions: 120000001 cycles: 30003805 heartbeat IPC: 4 cumulative IPC: 3.999 (Simulation time: 01 hr 11 min 40 sec)
*** Reached end of trace: (3, "traces/canneal_big1.champsimtrace")
Warmup finished CPU 3 instructions: 50000000 cycles: 30053304 cumulative IPC: 1.664 (Simulation time: 01 hr 11 min 46 sec)
Heartbeat CPU 3 instructions: 50000008 cycles: 30053327 heartbeat IPC: 1.758 cumulative IPC: 1.664 (Simulation time: 01 hr 11 min 46 sec)
*** Reached end of trace: (7, "traces/canneal_big1.champsimtrace")
Warmup finished CPU 7 instructions: 50000000 cycles: 30063090 cumulative IPC: 1.663 (Simulation time: 01 hr 11 min 48 sec)
Warmup complete CPU 7 instructions: 50000000 cycles: 30063090 cumulative IPC: 1.663 (Simulation time: 01 hr 11 min 48 sec)
Warmup complete CPU 6 instructions: 78056469 cycles: 30063090 cumulative IPC: 2.596 (Simulation time: 01 hr 11 min 48 sec)
Warmup complete CPU 5 instructions: 120237733 cycles: 30063090 cumulative IPC: 4 (Simulation time: 01 hr 11 min 48 sec)
Warmup complete CPU 4 instructions: 120237141 cycles: 30063090 cumulative IPC: 3.999 (Simulation time: 01 hr 11 min 48 sec)
Warmup complete CPU 3 instructions: 50014824 cycles: 30063090 cumulative IPC: 1.664 (Simulation time: 01 hr 11 min 48 sec)
Warmup complete CPU 2 instructions: 77788279 cycles: 30063090 cumulative IPC: 2.588 (Simulation time: 01 hr 11 min 48 sec)
Warmup complete CPU 1 instructions: 120237733 cycles: 30063090 cumulative IPC: 4 (Simulation time: 01 hr 11 min 48 sec)
Warmup complete CPU 0 instructions: 120237145 cycles: 30063090 cumulative IPC: 3.999 (Simulation time: 01 hr 11 min 48 sec)
Heartbeat CPU 7 instructions: 50000008 cycles: 30063442 heartbeat IPC: 1.757 cumulative IPC: 0.02273 (Simulation time: 01 hr 11 min 48 sec)
*** Reached end of trace: (6, "traces/canneal_big0.champsimtrace")
Heartbeat CPU 6 instructions: 80000024 cycles: 31016998 heartbeat IPC: 2.505 cumulative IPC: 2.037 (Simulation time: 01 hr 13 min 55 sec)
*** Reached end of trace: (2, "traces/canneal_big0.champsimtrace")
Heartbeat CPU 2 instructions: 80000021 cycles: 31126514 heartbeat IPC: 2.499 cumulative IPC: 2.08 (Simulation time: 01 hr 14 min 10 sec)
*** Reached end of trace: (5, "traces/canneal_big3.champsimtrace")
*** Reached end of trace: (1, "traces/canneal_big3.champsimtrace")
*** Reached end of trace: (0, "traces/canneal_big2.champsimtrace")
*** Reached end of trace: (4, "traces/canneal_big2.champsimtrace")
*** Reached end of trace: (5, "traces/canneal_big3.champsimtrace")
*** Reached end of trace: (1, "traces/canneal_big3.champsimtrace")
Heartbeat CPU 5 instructions: 130000001 cycles: 32503657 heartbeat IPC: 4 cumulative IPC: 4 (Simulation time: 01 hr 17 min 16 sec)
Heartbeat CPU 1 instructions: 130000001 cycles: 32503657 heartbeat IPC: 4 cumulative IPC: 4 (Simulation time: 01 hr 17 min 16 sec)
*** Reached end of trace: (0, "traces/canneal_big2.champsimtrace")
*** Reached end of trace: (4, "traces/canneal_big2.champsimtrace")
Heartbeat CPU 0 instructions: 130000001 cycles: 32503804 heartbeat IPC: 4 cumulative IPC: 4 (Simulation time: 01 hr 17 min 16 sec)
Heartbeat CPU 4 instructions: 130000001 cycles: 32503805 heartbeat IPC: 4 cumulative IPC: 4 (Simulation time: 01 hr 17 min 16 sec)
*** Reached end of trace: (6, "traces/canneal_big0.champsimtrace")
*** Reached end of trace: (2, "traces/canneal_big0.champsimtrace")
*** Reached end of trace: (5, "traces/canneal_big3.champsimtrace")
*** Reached end of trace: (1, "traces/canneal_big3.champsimtrace")
*** Reached end of trace: (0, "traces/canneal_big2.champsimtrace")
*** Reached end of trace: (4, "traces/canneal_big2.champsimtrace")
*** Reached end of trace: (5, "traces/canneal_big3.champsimtrace")
*** Reached end of trace: (1, "traces/canneal_big3.champsimtrace")
Heartbeat CPU 5 instructions: 140000001 cycles: 35003657 heartbeat IPC: 4 cumulative IPC: 4 (Simulation time: 01 hr 22 min 59 sec)
Heartbeat CPU 1 instructions: 140000001 cycles: 35003657 heartbeat IPC: 4 cumulative IPC: 4 (Simulation time: 01 hr 22 min 59 sec)
*** Reached end of trace: (0, "traces/canneal_big2.champsimtrace")
*** Reached end of trace: (4, "traces/canneal_big2.champsimtrace")
Heartbeat CPU 0 instructions: 140000001 cycles: 35003804 heartbeat IPC: 4 cumulative IPC: 4 (Simulation time: 01 hr 22 min 59 sec)
Heartbeat CPU 4 instructions: 140000001 cycles: 35003805 heartbeat IPC: 4 cumulative IPC: 4 (Simulation time: 01 hr 22 min 59 sec)
*** Reached end of trace: (6, "traces/canneal_big0.champsimtrace")
*** Reached end of trace: (2, "traces/canneal_big0.champsimtrace")
Heartbeat CPU 6 instructions: 90000027 cycles: 35843485 heartbeat IPC: 2.072 cumulative IPC: 2.066 (Simulation time: 01 hr 24 min 55 sec)
Heartbeat CPU 2 instructions: 90000022 cycles: 35843486 heartbeat IPC: 2.12 cumulative IPC: 2.113 (Simulation time: 01 hr 24 min 55 sec)
*** Reached end of trace: (5, "traces/canneal_big3.champsimtrace")
*** Reached end of trace: (1, "traces/canneal_big3.champsimtrace")
*** Reached end of trace: (0, "traces/canneal_big2.champsimtrace")
*** Reached end of trace: (4, "traces/canneal_big2.champsimtrace")
*** Reached end of trace: (5, "traces/canneal_big3.champsimtrace")
*** Reached end of trace: (1, "traces/canneal_big3.champsimtrace")
Heartbeat CPU 5 instructions: 150000001 cycles: 37503657 heartbeat IPC: 4 cumulative IPC: 4 (Simulation time: 01 hr 28 min 39 sec)
Heartbeat CPU 1 instructions: 150000001 cycles: 37503657 heartbeat IPC: 4 cumulative IPC: 4 (Simulation time: 01 hr 28 min 39 sec)
*** Reached end of trace: (0, "traces/canneal_big2.champsimtrace")
*** Reached end of trace: (4, "traces/canneal_big2.champsimtrace")
Heartbeat CPU 0 instructions: 150000001 cycles: 37503804 heartbeat IPC: 4 cumulative IPC: 4 (Simulation time: 01 hr 28 min 39 sec)
Heartbeat CPU 4 instructions: 150000001 cycles: 37503805 heartbeat IPC: 4 cumulative IPC: 4 (Simulation time: 01 hr 28 min 39 sec)
*** Reached end of trace: (6, "traces/canneal_big0.champsimtrace")
*** Reached end of trace: (2, "traces/canneal_big0.champsimtrace")
*** Reached end of trace: (5, "traces/canneal_big3.champsimtrace")
*** Reached end of trace: (1, "traces/canneal_big3.champsimtrace")
*** Reached end of trace: (0, "traces/canneal_big2.champsimtrace")
*** Reached end of trace: (4, "traces/canneal_big2.champsimtrace")
*** Reached end of trace: (5, "traces/canneal_big3.champsimtrace")
*** Reached end of trace: (1, "traces/canneal_big3.champsimtrace")
Heartbeat CPU 5 instructions: 160000001 cycles: 40003657 heartbeat IPC: 4 cumulative IPC: 4 (Simulation time: 01 hr 34 min 25 sec)
Heartbeat CPU 1 instructions: 160000001 cycles: 40003657 heartbeat IPC: 4 cumulative IPC: 4 (Simulation time: 01 hr 34 min 25 sec)
*** Reached end of trace: (0, "traces/canneal_big2.champsimtrace")
*** Reached end of trace: (4, "traces/canneal_big2.champsimtrace")
Heartbeat CPU 0 instructions: 160000001 cycles: 40003804 heartbeat IPC: 4 cumulative IPC: 4 (Simulation time: 01 hr 34 min 25 sec)
Heartbeat CPU 4 instructions: 160000001 cycles: 40003805 heartbeat IPC: 4 cumulative IPC: 4 (Simulation time: 01 hr 34 min 25 sec)
*** Reached end of trace: (6, "traces/canneal_big0.champsimtrace")
Heartbeat CPU 6 instructions: 100000027 cycles: 40284883 heartbeat IPC: 2.252 cumulative IPC: 2.147 (Simulation time: 01 hr 35 min 04 sec)
*** Reached end of trace: (2, "traces/canneal_big0.champsimtrace")
Heartbeat CPU 2 instructions: 100000025 cycles: 40311706 heartbeat IPC: 2.238 cumulative IPC: 2.167 (Simulation time: 01 hr 35 min 08 sec)
*** Reached end of trace: (5, "traces/canneal_big3.champsimtrace")
*** Reached end of trace: (1, "traces/canneal_big3.champsimtrace")
*** Reached end of trace: (0, "traces/canneal_big2.champsimtrace")
*** Reached end of trace: (4, "traces/canneal_big2.champsimtrace")
*** Reached end of trace: (6, "traces/canneal_big0.champsimtrace")
*** Reached end of trace: (2, "traces/canneal_big0.champsimtrace")
*** Reached end of trace: (5, "traces/canneal_big3.champsimtrace")
*** Reached end of trace: (1, "traces/canneal_big3.champsimtrace")
Heartbeat CPU 5 instructions: 170000001 cycles: 42503657 heartbeat IPC: 4 cumulative IPC: 4 (Simulation time: 01 hr 40 min 12 sec)
Heartbeat CPU 1 instructions: 170000001 cycles: 42503657 heartbeat IPC: 4 cumulative IPC: 4 (Simulation time: 01 hr 40 min 12 sec)
*** Reached end of trace: (0, "traces/canneal_big2.champsimtrace")
*** Reached end of trace: (4, "traces/canneal_big2.champsimtrace")
Heartbeat CPU 0 instructions: 170000001 cycles: 42503804 heartbeat IPC: 4 cumulative IPC: 4 (Simulation time: 01 hr 40 min 12 sec)
Heartbeat CPU 4 instructions: 170000001 cycles: 42503805 heartbeat IPC: 4 cumulative IPC: 4 (Simulation time: 01 hr 40 min 12 sec)
*** Reached end of trace: (5, "traces/canneal_big3.champsimtrace")
*** Reached end of trace: (1, "traces/canneal_big3.champsimtrace")
*** Reached end of trace: (0, "traces/canneal_big2.champsimtrace")
*** Reached end of trace: (4, "traces/canneal_big2.champsimtrace")
*** Reached end of trace: (6, "traces/canneal_big0.champsimtrace")
Heartbeat CPU 6 instructions: 110000028 cycles: 44582735 heartbeat IPC: 2.327 cumulative IPC: 2.2 (Simulation time: 01 hr 44 min 55 sec)
*** Reached end of trace: (2, "traces/canneal_big0.champsimtrace")
Heartbeat CPU 2 instructions: 110000028 cycles: 44612127 heartbeat IPC: 2.325 cumulative IPC: 2.214 (Simulation time: 01 hr 44 min 59 sec)
*** Reached end of trace: (5, "traces/canneal_big3.champsimtrace")
*** Reached end of trace: (1, "traces/canneal_big3.champsimtrace")
Heartbeat CPU 5 instructions: 180000001 cycles: 45003657 heartbeat IPC: 4 cumulative IPC: 4 (Simulation time: 01 hr 45 min 53 sec)
Heartbeat CPU 1 instructions: 180000001 cycles: 45003657 heartbeat IPC: 4 cumulative IPC: 4 (Simulation time: 01 hr 45 min 53 sec)
*** Reached end of trace: (0, "traces/canneal_big2.champsimtrace")
*** Reached end of trace: (4, "traces/canneal_big2.champsimtrace")
Heartbeat CPU 0 instructions: 180000001 cycles: 45003804 heartbeat IPC: 4 cumulative IPC: 4 (Simulation time: 01 hr 45 min 53 sec)
Heartbeat CPU 4 instructions: 180000001 cycles: 45003805 heartbeat IPC: 4 cumulative IPC: 4 (Simulation time: 01 hr 45 min 53 sec)
*** Reached end of trace: (7, "traces/canneal_big1.champsimtrace")
*** Reached end of trace: (3, "traces/canneal_big1.champsimtrace")
*** Reached end of trace: (5, "traces/canneal_big3.champsimtrace")
*** Reached end of trace: (1, "traces/canneal_big3.champsimtrace")
*** Reached end of trace: (0, "traces/canneal_big2.champsimtrace")
*** Reached end of trace: (4, "traces/canneal_big2.champsimtrace")
*** Reached end of trace: (6, "traces/canneal_big0.champsimtrace")
*** Reached end of trace: (2, "traces/canneal_big0.champsimtrace")
*** Reached end of trace: (5, "traces/canneal_big3.champsimtrace")
*** Reached end of trace: (1, "traces/canneal_big3.champsimtrace")
Heartbeat CPU 5 instructions: 190000001 cycles: 47503657 heartbeat IPC: 4 cumulative IPC: 4 (Simulation time: 01 hr 51 min 30 sec)
Heartbeat CPU 1 instructions: 190000001 cycles: 47503657 heartbeat IPC: 4 cumulative IPC: 4 (Simulation time: 01 hr 51 min 30 sec)
*** Reached end of trace: (0, "traces/canneal_big2.champsimtrace")
*** Reached end of trace: (4, "traces/canneal_big2.champsimtrace")
Heartbeat CPU 0 instructions: 190000001 cycles: 47503804 heartbeat IPC: 4 cumulative IPC: 4 (Simulation time: 01 hr 51 min 30 sec)
Heartbeat CPU 4 instructions: 190000001 cycles: 47503805 heartbeat IPC: 4 cumulative IPC: 4 (Simulation time: 01 hr 51 min 30 sec)
*** Reached end of trace: (5, "traces/canneal_big3.champsimtrace")
*** Reached end of trace: (1, "traces/canneal_big3.champsimtrace")
*** Reached end of trace: (0, "traces/canneal_big2.champsimtrace")
*** Reached end of trace: (4, "traces/canneal_big2.champsimtrace")
*** Reached end of trace: (6, "traces/canneal_big0.champsimtrace")
Heartbeat CPU 6 instructions: 120000031 cycles: 48823336 heartbeat IPC: 2.358 cumulative IPC: 2.236 (Simulation time: 01 hr 54 min 30 sec)
*** Reached end of trace: (2, "traces/canneal_big0.champsimtrace")
Heartbeat CPU 2 instructions: 120000031 cycles: 48853663 heartbeat IPC: 2.358 cumulative IPC: 2.246 (Simulation time: 01 hr 54 min 34 sec)
*** Reached end of trace: (5, "traces/canneal_big3.champsimtrace")
*** Reached end of trace: (1, "traces/canneal_big3.champsimtrace")
Heartbeat CPU 5 instructions: 200000001 cycles: 50003657 heartbeat IPC: 4 cumulative IPC: 4 (Simulation time: 01 hr 57 min 10 sec)
Heartbeat CPU 1 instructions: 200000001 cycles: 50003657 heartbeat IPC: 4 cumulative IPC: 4 (Simulation time: 01 hr 57 min 10 sec)
*** Reached end of trace: (0, "traces/canneal_big2.champsimtrace")
*** Reached end of trace: (4, "traces/canneal_big2.champsimtrace")
Heartbeat CPU 0 instructions: 200000001 cycles: 50003804 heartbeat IPC: 4 cumulative IPC: 4 (Simulation time: 01 hr 57 min 10 sec)
Heartbeat CPU 4 instructions: 200000001 cycles: 50003805 heartbeat IPC: 4 cumulative IPC: 4 (Simulation time: 01 hr 57 min 10 sec)
*** Reached end of trace: (6, "traces/canneal_big0.champsimtrace")
*** Reached end of trace: (2, "traces/canneal_big0.champsimtrace")
*** Reached end of trace: (5, "traces/canneal_big3.champsimtrace")
*** Reached end of trace: (1, "traces/canneal_big3.champsimtrace")
*** Reached end of trace: (0, "traces/canneal_big2.champsimtrace")
*** Reached end of trace: (4, "traces/canneal_big2.champsimtrace")
*** Reached end of trace: (5, "traces/canneal_big3.champsimtrace")
*** Reached end of trace: (1, "traces/canneal_big3.champsimtrace")
Heartbeat CPU 5 instructions: 210000001 cycles: 52503657 heartbeat IPC: 4 cumulative IPC: 4 (Simulation time: 02 hr 02 min 56 sec)
Heartbeat CPU 1 instructions: 210000001 cycles: 52503657 heartbeat IPC: 4 cumulative IPC: 4 (Simulation time: 02 hr 02 min 56 sec)
*** Reached end of trace: (0, "traces/canneal_big2.champsimtrace")
*** Reached end of trace: (4, "traces/canneal_big2.champsimtrace")
Heartbeat CPU 0 instructions: 210000001 cycles: 52503804 heartbeat IPC: 4 cumulative IPC: 4 (Simulation time: 02 hr 02 min 56 sec)
Heartbeat CPU 4 instructions: 210000001 cycles: 52503805 heartbeat IPC: 4 cumulative IPC: 4 (Simulation time: 02 hr 02 min 56 sec)
*** Reached end of trace: (6, "traces/canneal_big0.champsimtrace")
Heartbeat CPU 6 instructions: 130000034 cycles: 53037256 heartbeat IPC: 2.373 cumulative IPC: 2.261 (Simulation time: 02 hr 04 min 10 sec)
*** Reached end of trace: (2, "traces/canneal_big0.champsimtrace")
Heartbeat CPU 2 instructions: 130000034 cycles: 53069339 heartbeat IPC: 2.372 cumulative IPC: 2.269 (Simulation time: 02 hr 04 min 14 sec)
*** Reached end of trace: (5, "traces/canneal_big3.champsimtrace")
*** Reached end of trace: (1, "traces/canneal_big3.champsimtrace")
*** Reached end of trace: (0, "traces/canneal_big2.champsimtrace")
*** Reached end of trace: (4, "traces/canneal_big2.champsimtrace")
*** Reached end of trace: (5, "traces/canneal_big3.champsimtrace")
*** Reached end of trace: (1, "traces/canneal_big3.champsimtrace")
Heartbeat CPU 5 instructions: 220000001 cycles: 55003657 heartbeat IPC: 4 cumulative IPC: 4 (Simulation time: 02 hr 08 min 41 sec)
Heartbeat CPU 1 instructions: 220000001 cycles: 55003657 heartbeat IPC: 4 cumulative IPC: 4 (Simulation time: 02 hr 08 min 41 sec)
*** Reached end of trace: (0, "traces/canneal_big2.champsimtrace")
*** Reached end of trace: (4, "traces/canneal_big2.champsimtrace")
Heartbeat CPU 0 instructions: 220000001 cycles: 55003804 heartbeat IPC: 4 cumulative IPC: 4 (Simulation time: 02 hr 08 min 41 sec)
Heartbeat CPU 4 instructions: 220000001 cycles: 55003805 heartbeat IPC: 4 cumulative IPC: 4 (Simulation time: 02 hr 08 min 41 sec)
Simulation finished CPU 5 instructions: 100000000 cycles: 25000000 cumulative IPC: 4 (Simulation time: 02 hr 08 min 49 sec)
Simulation finished CPU 4 instructions: 100000000 cycles: 25000000 cumulative IPC: 4 (Simulation time: 02 hr 08 min 49 sec)
Simulation finished CPU 1 instructions: 100000000 cycles: 25000000 cumulative IPC: 4 (Simulation time: 02 hr 08 min 49 sec)
Simulation finished CPU 0 instructions: 100000000 cycles: 25000000 cumulative IPC: 4 (Simulation time: 02 hr 08 min 49 sec)
*** Reached end of trace: (6, "traces/canneal_big0.champsimtrace")
*** Reached end of trace: (2, "traces/canneal_big0.champsimtrace")
*** Reached end of trace: (5, "traces/canneal_big3.champsimtrace")
*** Reached end of trace: (1, "traces/canneal_big3.champsimtrace")
*** Reached end of trace: (0, "traces/canneal_big2.champsimtrace")
*** Reached end of trace: (4, "traces/canneal_big2.champsimtrace")
*** Reached end of trace: (6, "traces/canneal_big0.champsimtrace")
Heartbeat CPU 6 instructions: 140000037 cycles: 57216577 heartbeat IPC: 2.393 cumulative IPC: 2.281 (Simulation time: 02 hr 13 min 46 sec)
*** Reached end of trace: (2, "traces/canneal_big0.champsimtrace")
Heartbeat CPU 2 instructions: 140000037 cycles: 57247560 heartbeat IPC: 2.393 cumulative IPC: 2.289 (Simulation time: 02 hr 13 min 51 sec)
*** Reached end of trace: (5, "traces/canneal_big3.champsimtrace")
*** Reached end of trace: (1, "traces/canneal_big3.champsimtrace")
Heartbeat CPU 5 instructions: 230000001 cycles: 57503657 heartbeat IPC: 4 cumulative IPC: 4 (Simulation time: 02 hr 14 min 27 sec)
Heartbeat CPU 1 instructions: 230000001 cycles: 57503657 heartbeat IPC: 4 cumulative IPC: 4 (Simulation time: 02 hr 14 min 27 sec)
*** Reached end of trace: (0, "traces/canneal_big2.champsimtrace")
*** Reached end of trace: (4, "traces/canneal_big2.champsimtrace")
Heartbeat CPU 0 instructions: 230000001 cycles: 57503804 heartbeat IPC: 4 cumulative IPC: 4 (Simulation time: 02 hr 14 min 27 sec)
Heartbeat CPU 4 instructions: 230000001 cycles: 57503805 heartbeat IPC: 4 cumulative IPC: 4 (Simulation time: 02 hr 14 min 27 sec)
*** Reached end of trace: (5, "traces/canneal_big3.champsimtrace")
*** Reached end of trace: (1, "traces/canneal_big3.champsimtrace")
*** Reached end of trace: (0, "traces/canneal_big2.champsimtrace")
*** Reached end of trace: (4, "traces/canneal_big2.champsimtrace")
*** Reached end of trace: (6, "traces/canneal_big0.champsimtrace")
*** Reached end of trace: (2, "traces/canneal_big0.champsimtrace")
*** Reached end of trace: (5, "traces/canneal_big3.champsimtrace")
*** Reached end of trace: (1, "traces/canneal_big3.champsimtrace")
Heartbeat CPU 5 instructions: 240000001 cycles: 60003657 heartbeat IPC: 4 cumulative IPC: 4 (Simulation time: 02 hr 20 min 06 sec)
Heartbeat CPU 1 instructions: 240000001 cycles: 60003657 heartbeat IPC: 4 cumulative IPC: 4 (Simulation time: 02 hr 20 min 06 sec)
*** Reached end of trace: (0, "traces/canneal_big2.champsimtrace")
*** Reached end of trace: (4, "traces/canneal_big2.champsimtrace")
Heartbeat CPU 0 instructions: 240000001 cycles: 60003804 heartbeat IPC: 4 cumulative IPC: 4 (Simulation time: 02 hr 20 min 06 sec)
Heartbeat CPU 4 instructions: 240000001 cycles: 60003805 heartbeat IPC: 4 cumulative IPC: 4 (Simulation time: 02 hr 20 min 06 sec)
*** Reached end of trace: (7, "traces/canneal_big1.champsimtrace")
*** Reached end of trace: (3, "traces/canneal_big1.champsimtrace")
Heartbeat CPU 7 instructions: 60000010 cycles: 60409273 heartbeat IPC: 0.3295 cumulative IPC: 0.3295 (Simulation time: 02 hr 21 min 01 sec)
Heartbeat CPU 3 instructions: 60000010 cycles: 60409274 heartbeat IPC: 0.3294 cumulative IPC: 0.329 (Simulation time: 02 hr 21 min 01 sec)
*** Reached end of trace: (5, "traces/canneal_big3.champsimtrace")
*** Reached end of trace: (1, "traces/canneal_big3.champsimtrace")
*** Reached end of trace: (0, "traces/canneal_big2.champsimtrace")
*** Reached end of trace: (4, "traces/canneal_big2.champsimtrace")
*** Reached end of trace: (6, "traces/canneal_big0.champsimtrace")
Heartbeat CPU 6 instructions: 150000040 cycles: 61371469 heartbeat IPC: 2.407 cumulative IPC: 2.298 (Simulation time: 02 hr 23 min 11 sec)
*** Reached end of trace: (2, "traces/canneal_big0.champsimtrace")
Heartbeat CPU 2 instructions: 150000040 cycles: 61400581 heartbeat IPC: 2.408 cumulative IPC: 2.304 (Simulation time: 02 hr 23 min 15 sec)
*** Reached end of trace: (5, "traces/canneal_big3.champsimtrace")
*** Reached end of trace: (1, "traces/canneal_big3.champsimtrace")
Heartbeat CPU 5 instructions: 250000001 cycles: 62503657 heartbeat IPC: 4 cumulative IPC: 4 (Simulation time: 02 hr 25 min 45 sec)
Heartbeat CPU 1 instructions: 250000001 cycles: 62503657 heartbeat IPC: 4 cumulative IPC: 4 (Simulation time: 02 hr 25 min 45 sec)
*** Reached end of trace: (0, "traces/canneal_big2.champsimtrace")
*** Reached end of trace: (4, "traces/canneal_big2.champsimtrace")
Heartbeat CPU 0 instructions: 250000001 cycles: 62503804 heartbeat IPC: 4 cumulative IPC: 4 (Simulation time: 02 hr 25 min 45 sec)
Heartbeat CPU 4 instructions: 250000001 cycles: 62503805 heartbeat IPC: 4 cumulative IPC: 4 (Simulation time: 02 hr 25 min 45 sec)
*** Reached end of trace: (6, "traces/canneal_big0.champsimtrace")
*** Reached end of trace: (2, "traces/canneal_big0.champsimtrace")
*** Reached end of trace: (5, "traces/canneal_big3.champsimtrace")
*** Reached end of trace: (1, "traces/canneal_big3.champsimtrace")
*** Reached end of trace: (0, "traces/canneal_big2.champsimtrace")
*** Reached end of trace: (4, "traces/canneal_big2.champsimtrace")
*** Reached end of trace: (5, "traces/canneal_big3.champsimtrace")
*** Reached end of trace: (1, "traces/canneal_big3.champsimtrace")
Heartbeat CPU 5 instructions: 260000001 cycles: 65003657 heartbeat IPC: 4 cumulative IPC: 4 (Simulation time: 02 hr 31 min 28 sec)
Heartbeat CPU 1 instructions: 260000001 cycles: 65003657 heartbeat IPC: 4 cumulative IPC: 4 (Simulation time: 02 hr 31 min 28 sec)
*** Reached end of trace: (0, "traces/canneal_big2.champsimtrace")
*** Reached end of trace: (4, "traces/canneal_big2.champsimtrace")
Heartbeat CPU 0 instructions: 260000001 cycles: 65003804 heartbeat IPC: 4 cumulative IPC: 4 (Simulation time: 02 hr 31 min 28 sec)
Heartbeat CPU 4 instructions: 260000001 cycles: 65003805 heartbeat IPC: 4 cumulative IPC: 4 (Simulation time: 02 hr 31 min 28 sec)
*** Reached end of trace: (6, "traces/canneal_big0.champsimtrace")
Heartbeat CPU 6 instructions: 160000043 cycles: 65512020 heartbeat IPC: 2.415 cumulative IPC: 2.312 (Simulation time: 02 hr 32 min 38 sec)
*** Reached end of trace: (2, "traces/canneal_big0.champsimtrace")
Heartbeat CPU 2 instructions: 160000043 cycles: 65541352 heartbeat IPC: 2.415 cumulative IPC: 2.317 (Simulation time: 02 hr 32 min 42 sec)
*** Reached end of trace: (5, "traces/canneal_big3.champsimtrace")
*** Reached end of trace: (1, "traces/canneal_big3.champsimtrace")
*** Reached end of trace: (0, "traces/canneal_big2.champsimtrace")
*** Reached end of trace: (4, "traces/canneal_big2.champsimtrace")
*** Reached end of trace: (5, "traces/canneal_big3.champsimtrace")
*** Reached end of trace: (1, "traces/canneal_big3.champsimtrace")
Heartbeat CPU 5 instructions: 270000001 cycles: 67503657 heartbeat IPC: 4 cumulative IPC: 4 (Simulation time: 02 hr 37 min 10 sec)
Heartbeat CPU 1 instructions: 270000001 cycles: 67503657 heartbeat IPC: 4 cumulative IPC: 4 (Simulation time: 02 hr 37 min 10 sec)
*** Reached end of trace: (0, "traces/canneal_big2.champsimtrace")
*** Reached end of trace: (4, "traces/canneal_big2.champsimtrace")
Heartbeat CPU 0 instructions: 270000001 cycles: 67503804 heartbeat IPC: 4 cumulative IPC: 4 (Simulation time: 02 hr 37 min 10 sec)
Heartbeat CPU 4 instructions: 270000001 cycles: 67503805 heartbeat IPC: 4 cumulative IPC: 4 (Simulation time: 02 hr 37 min 10 sec)
*** Reached end of trace: (6, "traces/canneal_big0.champsimtrace")
*** Reached end of trace: (2, "traces/canneal_big0.champsimtrace")
*** Reached end of trace: (5, "traces/canneal_big3.champsimtrace")
*** Reached end of trace: (1, "traces/canneal_big3.champsimtrace")
*** Reached end of trace: (0, "traces/canneal_big2.champsimtrace")
*** Reached end of trace: (4, "traces/canneal_big2.champsimtrace")
*** Reached end of trace: (6, "traces/canneal_big0.champsimtrace")
Heartbeat CPU 6 instructions: 170000046 cycles: 69641497 heartbeat IPC: 2.422 cumulative IPC: 2.323 (Simulation time: 02 hr 42 min 00 sec)
*** Reached end of trace: (2, "traces/canneal_big0.champsimtrace")
Heartbeat CPU 2 instructions: 170000046 cycles: 69671713 heartbeat IPC: 2.421 cumulative IPC: 2.328 (Simulation time: 02 hr 42 min 04 sec)
*** Reached end of trace: (5, "traces/canneal_big3.champsimtrace")
*** Reached end of trace: (1, "traces/canneal_big3.champsimtrace")
Heartbeat CPU 5 instructions: 280000001 cycles: 70003657 heartbeat IPC: 4 cumulative IPC: 4 (Simulation time: 02 hr 42 min 51 sec)
Heartbeat CPU 1 instructions: 280000001 cycles: 70003657 heartbeat IPC: 4 cumulative IPC: 4 (Simulation time: 02 hr 42 min 51 sec)
*** Reached end of trace: (0, "traces/canneal_big2.champsimtrace")
*** Reached end of trace: (4, "traces/canneal_big2.champsimtrace")
Heartbeat CPU 0 instructions: 280000001 cycles: 70003804 heartbeat IPC: 4 cumulative IPC: 4 (Simulation time: 02 hr 42 min 51 sec)
Heartbeat CPU 4 instructions: 280000001 cycles: 70003805 heartbeat IPC: 4 cumulative IPC: 4 (Simulation time: 02 hr 42 min 51 sec)
*** Reached end of trace: (5, "traces/canneal_big3.champsimtrace")
*** Reached end of trace: (1, "traces/canneal_big3.champsimtrace")
*** Reached end of trace: (0, "traces/canneal_big2.champsimtrace")
*** Reached end of trace: (4, "traces/canneal_big2.champsimtrace")
*** Reached end of trace: (6, "traces/canneal_big0.champsimtrace")
*** Reached end of trace: (2, "traces/canneal_big0.champsimtrace")
*** Reached end of trace: (5, "traces/canneal_big3.champsimtrace")
*** Reached end of trace: (1, "traces/canneal_big3.champsimtrace")
Heartbeat CPU 5 instructions: 290000001 cycles: 72503657 heartbeat IPC: 4 cumulative IPC: 4 (Simulation time: 02 hr 48 min 28 sec)
Heartbeat CPU 1 instructions: 290000001 cycles: 72503657 heartbeat IPC: 4 cumulative IPC: 4 (Simulation time: 02 hr 48 min 28 sec)
*** Reached end of trace: (0, "traces/canneal_big2.champsimtrace")
*** Reached end of trace: (4, "traces/canneal_big2.champsimtrace")
Heartbeat CPU 0 instructions: 290000001 cycles: 72503804 heartbeat IPC: 4 cumulative IPC: 4 (Simulation time: 02 hr 48 min 28 sec)
Heartbeat CPU 4 instructions: 290000001 cycles: 72503805 heartbeat IPC: 4 cumulative IPC: 4 (Simulation time: 02 hr 48 min 28 sec)
Simulation finished CPU 2 instructions: 100000000 cycles: 42889525 cumulative IPC: 2.332 (Simulation time: 02 hr 49 min 29 sec)
Simulation finished CPU 6 instructions: 100000000 cycles: 42975553 cumulative IPC: 2.327 (Simulation time: 02 hr 49 min 40 sec)
*** Reached end of trace: (5, "traces/canneal_big3.champsimtrace")
*** Reached end of trace: (1, "traces/canneal_big3.champsimtrace")
*** Reached end of trace: (0, "traces/canneal_big2.champsimtrace")
*** Reached end of trace: (4, "traces/canneal_big2.champsimtrace")
*** Reached end of trace: (6, "traces/canneal_big0.champsimtrace")
Heartbeat CPU 6 instructions: 180000049 cycles: 73757637 heartbeat IPC: 2.429 cumulative IPC: 2.333 (Simulation time: 02 hr 51 min 18 sec)
*** Reached end of trace: (2, "traces/canneal_big0.champsimtrace")
Heartbeat CPU 2 instructions: 180000049 cycles: 73788934 heartbeat IPC: 2.429 cumulative IPC: 2.338 (Simulation time: 02 hr 51 min 23 sec)
*** Reached end of trace: (7, "traces/canneal_big1.champsimtrace")
*** Reached end of trace: (3, "traces/canneal_big1.champsimtrace")
*** Reached end of trace: (5, "traces/canneal_big3.champsimtrace")
*** Reached end of trace: (1, "traces/canneal_big3.champsimtrace")
Heartbeat CPU 5 instructions: 300000001 cycles: 75003657 heartbeat IPC: 4 cumulative IPC: 4 (Simulation time: 02 hr 54 min 07 sec)
Heartbeat CPU 1 instructions: 300000001 cycles: 75003657 heartbeat IPC: 4 cumulative IPC: 4 (Simulation time: 02 hr 54 min 07 sec)
*** Reached end of trace: (0, "traces/canneal_big2.champsimtrace")
*** Reached end of trace: (4, "traces/canneal_big2.champsimtrace")
Heartbeat CPU 0 instructions: 300000001 cycles: 75003804 heartbeat IPC: 4 cumulative IPC: 4 (Simulation time: 02 hr 54 min 07 sec)
Heartbeat CPU 4 instructions: 300000001 cycles: 75003805 heartbeat IPC: 4 cumulative IPC: 4 (Simulation time: 02 hr 54 min 07 sec)
*** Reached end of trace: (6, "traces/canneal_big0.champsimtrace")
*** Reached end of trace: (2, "traces/canneal_big0.champsimtrace")
*** Reached end of trace: (5, "traces/canneal_big3.champsimtrace")
*** Reached end of trace: (1, "traces/canneal_big3.champsimtrace")
*** Reached end of trace: (0, "traces/canneal_big2.champsimtrace")
*** Reached end of trace: (4, "traces/canneal_big2.champsimtrace")
*** Reached end of trace: (5, "traces/canneal_big3.champsimtrace")
*** Reached end of trace: (1, "traces/canneal_big3.champsimtrace")
Heartbeat CPU 5 instructions: 310000001 cycles: 77503657 heartbeat IPC: 4 cumulative IPC: 4 (Simulation time: 02 hr 59 min 49 sec)
Heartbeat CPU 1 instructions: 310000001 cycles: 77503657 heartbeat IPC: 4 cumulative IPC: 4 (Simulation time: 02 hr 59 min 49 sec)
*** Reached end of trace: (0, "traces/canneal_big2.champsimtrace")
*** Reached end of trace: (4, "traces/canneal_big2.champsimtrace")
Heartbeat CPU 0 instructions: 310000001 cycles: 77503804 heartbeat IPC: 4 cumulative IPC: 4 (Simulation time: 02 hr 59 min 49 sec)
Heartbeat CPU 4 instructions: 310000001 cycles: 77503805 heartbeat IPC: 4 cumulative IPC: 4 (Simulation time: 02 hr 59 min 49 sec)
*** Reached end of trace: (6, "traces/canneal_big0.champsimtrace")
Heartbeat CPU 6 instructions: 190000052 cycles: 77868838 heartbeat IPC: 2.432 cumulative IPC: 2.342 (Simulation time: 03 hr 00 min 40 sec)
*** Reached end of trace: (2, "traces/canneal_big0.champsimtrace")
Heartbeat CPU 2 instructions: 190000052 cycles: 77899965 heartbeat IPC: 2.432 cumulative IPC: 2.346 (Simulation time: 03 hr 00 min 44 sec)
*** Reached end of trace: (5, "traces/canneal_big3.champsimtrace")
*** Reached end of trace: (1, "traces/canneal_big3.champsimtrace")
*** Reached end of trace: (0, "traces/canneal_big2.champsimtrace")
*** Reached end of trace: (4, "traces/canneal_big2.champsimtrace")
*** Reached end of trace: (6, "traces/canneal_big0.champsimtrace")
*** Reached end of trace: (2, "traces/canneal_big0.champsimtrace")
*** Reached end of trace: (5, "traces/canneal_big3.champsimtrace")
*** Reached end of trace: (1, "traces/canneal_big3.champsimtrace")
Heartbeat CPU 5 instructions: 320000001 cycles: 80003657 heartbeat IPC: 4 cumulative IPC: 4 (Simulation time: 03 hr 05 min 35 sec)
Heartbeat CPU 1 instructions: 320000001 cycles: 80003657 heartbeat IPC: 4 cumulative IPC: 4 (Simulation time: 03 hr 05 min 35 sec)
*** Reached end of trace: (0, "traces/canneal_big2.champsimtrace")
*** Reached end of trace: (4, "traces/canneal_big2.champsimtrace")
Heartbeat CPU 0 instructions: 320000001 cycles: 80003804 heartbeat IPC: 4 cumulative IPC: 4 (Simulation time: 03 hr 05 min 35 sec)
Heartbeat CPU 4 instructions: 320000001 cycles: 80003805 heartbeat IPC: 4 cumulative IPC: 4 (Simulation time: 03 hr 05 min 35 sec)
*** Reached end of trace: (5, "traces/canneal_big3.champsimtrace")
*** Reached end of trace: (1, "traces/canneal_big3.champsimtrace")
*** Reached end of trace: (0, "traces/canneal_big2.champsimtrace")
*** Reached end of trace: (4, "traces/canneal_big2.champsimtrace")
*** Reached end of trace: (6, "traces/canneal_big0.champsimtrace")
Heartbeat CPU 6 instructions: 200000055 cycles: 81962349 heartbeat IPC: 2.443 cumulative IPC: 2.35 (Simulation time: 03 hr 10 min 04 sec)
*** Reached end of trace: (2, "traces/canneal_big0.champsimtrace")
Heartbeat CPU 2 instructions: 200000055 cycles: 81992156 heartbeat IPC: 2.444 cumulative IPC: 2.353 (Simulation time: 03 hr 10 min 08 sec)
*** Reached end of trace: (5, "traces/canneal_big3.champsimtrace")
*** Reached end of trace: (1, "traces/canneal_big3.champsimtrace")
Heartbeat CPU 5 instructions: 330000001 cycles: 82503657 heartbeat IPC: 4 cumulative IPC: 4 (Simulation time: 03 hr 11 min 20 sec)
Heartbeat CPU 1 instructions: 330000001 cycles: 82503657 heartbeat IPC: 4 cumulative IPC: 4 (Simulation time: 03 hr 11 min 20 sec)
*** Reached end of trace: (0, "traces/canneal_big2.champsimtrace")
*** Reached end of trace: (4, "traces/canneal_big2.champsimtrace")
Heartbeat CPU 0 instructions: 330000001 cycles: 82503804 heartbeat IPC: 4 cumulative IPC: 4 (Simulation time: 03 hr 11 min 20 sec)
Heartbeat CPU 4 instructions: 330000001 cycles: 82503805 heartbeat IPC: 4 cumulative IPC: 4 (Simulation time: 03 hr 11 min 20 sec)
*** Reached end of trace: (5, "traces/canneal_big3.champsimtrace")
*** Reached end of trace: (1, "traces/canneal_big3.champsimtrace")
*** Reached end of trace: (0, "traces/canneal_big2.champsimtrace")
*** Reached end of trace: (4, "traces/canneal_big2.champsimtrace")
*** Reached end of trace: (6, "traces/canneal_big0.champsimtrace")
*** Reached end of trace: (2, "traces/canneal_big0.champsimtrace")
*** Reached end of trace: (5, "traces/canneal_big3.champsimtrace")
*** Reached end of trace: (1, "traces/canneal_big3.champsimtrace")
Heartbeat CPU 5 instructions: 340000001 cycles: 85003657 heartbeat IPC: 4 cumulative IPC: 4 (Simulation time: 03 hr 17 min 03 sec)
Heartbeat CPU 1 instructions: 340000001 cycles: 85003657 heartbeat IPC: 4 cumulative IPC: 4 (Simulation time: 03 hr 17 min 03 sec)
*** Reached end of trace: (0, "traces/canneal_big2.champsimtrace")
*** Reached end of trace: (4, "traces/canneal_big2.champsimtrace")
Heartbeat CPU 0 instructions: 340000001 cycles: 85003804 heartbeat IPC: 4 cumulative IPC: 4 (Simulation time: 03 hr 17 min 03 sec)
Heartbeat CPU 4 instructions: 340000001 cycles: 85003805 heartbeat IPC: 4 cumulative IPC: 4 (Simulation time: 03 hr 17 min 03 sec)
*** Reached end of trace: (6, "traces/canneal_big0.champsimtrace")
Heartbeat CPU 6 instructions: 210000058 cycles: 86046745 heartbeat IPC: 2.448 cumulative IPC: 2.357 (Simulation time: 03 hr 19 min 27 sec)
*** Reached end of trace: (2, "traces/canneal_big0.champsimtrace")
Heartbeat CPU 2 instructions: 210000058 cycles: 86076587 heartbeat IPC: 2.448 cumulative IPC: 2.36 (Simulation time: 03 hr 19 min 31 sec)
*** Reached end of trace: (5, "traces/canneal_big3.champsimtrace")
*** Reached end of trace: (1, "traces/canneal_big3.champsimtrace")
*** Reached end of trace: (0, "traces/canneal_big2.champsimtrace")
*** Reached end of trace: (4, "traces/canneal_big2.champsimtrace")
*** Reached end of trace: (5, "traces/canneal_big3.champsimtrace")
*** Reached end of trace: (1, "traces/canneal_big3.champsimtrace")
Heartbeat CPU 5 instructions: 350000001 cycles: 87503657 heartbeat IPC: 4 cumulative IPC: 4 (Simulation time: 03 hr 22 min 48 sec)
Heartbeat CPU 1 instructions: 350000001 cycles: 87503657 heartbeat IPC: 4 cumulative IPC: 4 (Simulation time: 03 hr 22 min 48 sec)
*** Reached end of trace: (0, "traces/canneal_big2.champsimtrace")
*** Reached end of trace: (4, "traces/canneal_big2.champsimtrace")
Heartbeat CPU 0 instructions: 350000001 cycles: 87503804 heartbeat IPC: 4 cumulative IPC: 4 (Simulation time: 03 hr 22 min 48 sec)
Heartbeat CPU 4 instructions: 350000001 cycles: 87503805 heartbeat IPC: 4 cumulative IPC: 4 (Simulation time: 03 hr 22 min 48 sec)
*** Reached end of trace: (6, "traces/canneal_big0.champsimtrace")
*** Reached end of trace: (2, "traces/canneal_big0.champsimtrace")
*** Reached end of trace: (5, "traces/canneal_big3.champsimtrace")
*** Reached end of trace: (1, "traces/canneal_big3.champsimtrace")
*** Reached end of trace: (0, "traces/canneal_big2.champsimtrace")
*** Reached end of trace: (4, "traces/canneal_big2.champsimtrace")
*** Reached end of trace: (7, "traces/canneal_big1.champsimtrace")
*** Reached end of trace: (3, "traces/canneal_big1.champsimtrace")
Heartbeat CPU 7 instructions: 70000012 cycles: 89416629 heartbeat IPC: 0.3447 cumulative IPC: 0.337 (Simulation time: 03 hr 27 min 11 sec)
Heartbeat CPU 3 instructions: 70000012 cycles: 89416630 heartbeat IPC: 0.3447 cumulative IPC: 0.3367 (Simulation time: 03 hr 27 min 11 sec)
*** Reached end of trace: (5, "traces/canneal_big3.champsimtrace")
*** Reached end of trace: (1, "traces/canneal_big3.champsimtrace")
Heartbeat CPU 5 instructions: 360000001 cycles: 90003657 heartbeat IPC: 4 cumulative IPC: 4 (Simulation time: 03 hr 28 min 32 sec)
Heartbeat CPU 1 instructions: 360000001 cycles: 90003657 heartbeat IPC: 4 cumulative IPC: 4 (Simulation time: 03 hr 28 min 32 sec)
*** Reached end of trace: (0, "traces/canneal_big2.champsimtrace")
*** Reached end of trace: (4, "traces/canneal_big2.champsimtrace")
Heartbeat CPU 0 instructions: 360000001 cycles: 90003804 heartbeat IPC: 4 cumulative IPC: 4 (Simulation time: 03 hr 28 min 32 sec)
Heartbeat CPU 4 instructions: 360000001 cycles: 90003805 heartbeat IPC: 4 cumulative IPC: 4 (Simulation time: 03 hr 28 min 32 sec)
*** Reached end of trace: (6, "traces/canneal_big0.champsimtrace")
Heartbeat CPU 6 instructions: 220000061 cycles: 90130475 heartbeat IPC: 2.449 cumulative IPC: 2.363 (Simulation time: 03 hr 28 min 50 sec)
*** Reached end of trace: (2, "traces/canneal_big0.champsimtrace")
Heartbeat CPU 2 instructions: 220000061 cycles: 90161078 heartbeat IPC: 2.448 cumulative IPC: 2.366 (Simulation time: 03 hr 28 min 54 sec)
*** Reached end of trace: (5, "traces/canneal_big3.champsimtrace")
*** Reached end of trace: (1, "traces/canneal_big3.champsimtrace")
*** Reached end of trace: (0, "traces/canneal_big2.champsimtrace")
*** Reached end of trace: (4, "traces/canneal_big2.champsimtrace")
*** Reached end of trace: (6, "traces/canneal_big0.champsimtrace")
*** Reached end of trace: (2, "traces/canneal_big0.champsimtrace")
*** Reached end of trace: (5, "traces/canneal_big3.champsimtrace")
*** Reached end of trace: (1, "traces/canneal_big3.champsimtrace")
Heartbeat CPU 5 instructions: 370000001 cycles: 92503657 heartbeat IPC: 4 cumulative IPC: 4 (Simulation time: 03 hr 34 min 19 sec)
Heartbeat CPU 1 instructions: 370000001 cycles: 92503657 heartbeat IPC: 4 cumulative IPC: 4 (Simulation time: 03 hr 34 min 19 sec)
*** Reached end of trace: (0, "traces/canneal_big2.champsimtrace")
*** Reached end of trace: (4, "traces/canneal_big2.champsimtrace")
Heartbeat CPU 0 instructions: 370000001 cycles: 92503804 heartbeat IPC: 4 cumulative IPC: 4 (Simulation time: 03 hr 34 min 19 sec)
Heartbeat CPU 4 instructions: 370000001 cycles: 92503805 heartbeat IPC: 4 cumulative IPC: 4 (Simulation time: 03 hr 34 min 19 sec)
*** Reached end of trace: (5, "traces/canneal_big3.champsimtrace")
*** Reached end of trace: (1, "traces/canneal_big3.champsimtrace")
*** Reached end of trace: (0, "traces/canneal_big2.champsimtrace")
*** Reached end of trace: (4, "traces/canneal_big2.champsimtrace")
*** Reached end of trace: (6, "traces/canneal_big0.champsimtrace")
Heartbeat CPU 6 instructions: 230000064 cycles: 94215827 heartbeat IPC: 2.448 cumulative IPC: 2.368 (Simulation time: 03 hr 38 min 13 sec)
*** Reached end of trace: (2, "traces/canneal_big0.champsimtrace")
Heartbeat CPU 2 instructions: 230000064 cycles: 94244474 heartbeat IPC: 2.449 cumulative IPC: 2.372 (Simulation time: 03 hr 38 min 17 sec)
*** Reached end of trace: (5, "traces/canneal_big3.champsimtrace")
*** Reached end of trace: (1, "traces/canneal_big3.champsimtrace")
Heartbeat CPU 5 instructions: 380000001 cycles: 95003657 heartbeat IPC: 4 cumulative IPC: 4 (Simulation time: 03 hr 40 min 01 sec)
Heartbeat CPU 1 instructions: 380000001 cycles: 95003657 heartbeat IPC: 4 cumulative IPC: 4 (Simulation time: 03 hr 40 min 01 sec)
*** Reached end of trace: (0, "traces/canneal_big2.champsimtrace")
*** Reached end of trace: (4, "traces/canneal_big2.champsimtrace")
Heartbeat CPU 0 instructions: 380000001 cycles: 95003804 heartbeat IPC: 4 cumulative IPC: 4 (Simulation time: 03 hr 40 min 01 sec)
Heartbeat CPU 4 instructions: 380000001 cycles: 95003805 heartbeat IPC: 4 cumulative IPC: 4 (Simulation time: 03 hr 40 min 01 sec)
*** Reached end of trace: (6, "traces/canneal_big0.champsimtrace")
*** Reached end of trace: (5, "traces/canneal_big3.champsimtrace")
*** Reached end of trace: (1, "traces/canneal_big3.champsimtrace")
*** Reached end of trace: (0, "traces/canneal_big2.champsimtrace")
*** Reached end of trace: (4, "traces/canneal_big2.champsimtrace")
*** Reached end of trace: (2, "traces/canneal_big0.champsimtrace")
*** Reached end of trace: (5, "traces/canneal_big3.champsimtrace")
*** Reached end of trace: (1, "traces/canneal_big3.champsimtrace")
Heartbeat CPU 5 instructions: 390000001 cycles: 97503657 heartbeat IPC: 4 cumulative IPC: 4 (Simulation time: 03 hr 45 min 46 sec)
Heartbeat CPU 1 instructions: 390000001 cycles: 97503657 heartbeat IPC: 4 cumulative IPC: 4 (Simulation time: 03 hr 45 min 46 sec)
*** Reached end of trace: (0, "traces/canneal_big2.champsimtrace")
*** Reached end of trace: (4, "traces/canneal_big2.champsimtrace")
Heartbeat CPU 0 instructions: 390000001 cycles: 97503804 heartbeat IPC: 4 cumulative IPC: 4 (Simulation time: 03 hr 45 min 46 sec)
Heartbeat CPU 4 instructions: 390000001 cycles: 97503805 heartbeat IPC: 4 cumulative IPC: 4 (Simulation time: 03 hr 45 min 46 sec)
*** Reached end of trace: (6, "traces/canneal_big0.champsimtrace")
Heartbeat CPU 6 instructions: 240000067 cycles: 98285212 heartbeat IPC: 2.457 cumulative IPC: 2.374 (Simulation time: 03 hr 47 min 34 sec)
*** Reached end of trace: (2, "traces/canneal_big0.champsimtrace")
Heartbeat CPU 2 instructions: 240000067 cycles: 98315835 heartbeat IPC: 2.456 cumulative IPC: 2.377 (Simulation time: 03 hr 47 min 38 sec)
*** Reached end of trace: (5, "traces/canneal_big3.champsimtrace")
*** Reached end of trace: (1, "traces/canneal_big3.champsimtrace")
*** Reached end of trace: (0, "traces/canneal_big2.champsimtrace")
*** Reached end of trace: (4, "traces/canneal_big2.champsimtrace")
*** Reached end of trace: (5, "traces/canneal_big3.champsimtrace")
*** Reached end of trace: (1, "traces/canneal_big3.champsimtrace")
Heartbeat CPU 5 instructions: 400000001 cycles: 100003657 heartbeat IPC: 4 cumulative IPC: 4 (Simulation time: 03 hr 51 min 29 sec)
Heartbeat CPU 1 instructions: 400000001 cycles: 100003657 heartbeat IPC: 4 cumulative IPC: 4 (Simulation time: 03 hr 51 min 29 sec)
*** Reached end of trace: (0, "traces/canneal_big2.champsimtrace")
*** Reached end of trace: (4, "traces/canneal_big2.champsimtrace")
Heartbeat CPU 0 instructions: 400000001 cycles: 100003804 heartbeat IPC: 4 cumulative IPC: 4 (Simulation time: 03 hr 51 min 29 sec)
Heartbeat CPU 4 instructions: 400000001 cycles: 100003805 heartbeat IPC: 4 cumulative IPC: 4 (Simulation time: 03 hr 51 min 29 sec)
*** Reached end of trace: (6, "traces/canneal_big0.champsimtrace")
*** Reached end of trace: (2, "traces/canneal_big0.champsimtrace")
*** Reached end of trace: (5, "traces/canneal_big3.champsimtrace")
*** Reached end of trace: (1, "traces/canneal_big3.champsimtrace")
*** Reached end of trace: (0, "traces/canneal_big2.champsimtrace")
*** Reached end of trace: (4, "traces/canneal_big2.champsimtrace")
*** Reached end of trace: (6, "traces/canneal_big0.champsimtrace")
Heartbeat CPU 6 instructions: 250000070 cycles: 102345489 heartbeat IPC: 2.463 cumulative IPC: 2.379 (Simulation time: 03 hr 56 min 51 sec)
*** Reached end of trace: (2, "traces/canneal_big0.champsimtrace")
Heartbeat CPU 2 instructions: 250000070 cycles: 102376361 heartbeat IPC: 2.463 cumulative IPC: 2.381 (Simulation time: 03 hr 56 min 55 sec)
*** Reached end of trace: (5, "traces/canneal_big3.champsimtrace")
*** Reached end of trace: (1, "traces/canneal_big3.champsimtrace")
Heartbeat CPU 5 instructions: 410000001 cycles: 102503657 heartbeat IPC: 4 cumulative IPC: 4 (Simulation time: 03 hr 57 min 13 sec)
Heartbeat CPU 1 instructions: 410000001 cycles: 102503657 heartbeat IPC: 4 cumulative IPC: 4 (Simulation time: 03 hr 57 min 13 sec)
*** Reached end of trace: (0, "traces/canneal_big2.champsimtrace")
*** Reached end of trace: (4, "traces/canneal_big2.champsimtrace")
Heartbeat CPU 0 instructions: 410000001 cycles: 102503804 heartbeat IPC: 4 cumulative IPC: 4 (Simulation time: 03 hr 57 min 13 sec)
Heartbeat CPU 4 instructions: 410000001 cycles: 102503805 heartbeat IPC: 4 cumulative IPC: 4 (Simulation time: 03 hr 57 min 13 sec)
*** Reached end of trace: (5, "traces/canneal_big3.champsimtrace")
*** Reached end of trace: (1, "traces/canneal_big3.champsimtrace")
*** Reached end of trace: (0, "traces/canneal_big2.champsimtrace")
*** Reached end of trace: (4, "traces/canneal_big2.champsimtrace")
*** Reached end of trace: (7, "traces/canneal_big1.champsimtrace")
*** Reached end of trace: (3, "traces/canneal_big1.champsimtrace")
*** Reached end of trace: (6, "traces/canneal_big0.champsimtrace")
*** Reached end of trace: (2, "traces/canneal_big0.champsimtrace")
*** Reached end of trace: (5, "traces/canneal_big3.champsimtrace")
*** Reached end of trace: (1, "traces/canneal_big3.champsimtrace")
Heartbeat CPU 5 instructions: 420000001 cycles: 105003657 heartbeat IPC: 4 cumulative IPC: 4 (Simulation time: 04 hr 02 min 55 sec)
Heartbeat CPU 1 instructions: 420000001 cycles: 105003657 heartbeat IPC: 4 cumulative IPC: 4 (Simulation time: 04 hr 02 min 55 sec)
*** Reached end of trace: (0, "traces/canneal_big2.champsimtrace")
*** Reached end of trace: (4, "traces/canneal_big2.champsimtrace")
Heartbeat CPU 0 instructions: 420000001 cycles: 105003804 heartbeat IPC: 4 cumulative IPC: 4 (Simulation time: 04 hr 02 min 55 sec)
Heartbeat CPU 4 instructions: 420000001 cycles: 105003805 heartbeat IPC: 4 cumulative IPC: 4 (Simulation time: 04 hr 02 min 55 sec)
*** Reached end of trace: (5, "traces/canneal_big3.champsimtrace")
*** Reached end of trace: (1, "traces/canneal_big3.champsimtrace")
*** Reached end of trace: (0, "traces/canneal_big2.champsimtrace")
*** Reached end of trace: (4, "traces/canneal_big2.champsimtrace")
*** Reached end of trace: (6, "traces/canneal_big0.champsimtrace")
Heartbeat CPU 6 instructions: 260000073 cycles: 106405890 heartbeat IPC: 2.463 cumulative IPC: 2.383 (Simulation time: 04 hr 06 min 08 sec)
*** Reached end of trace: (2, "traces/canneal_big0.champsimtrace")
Heartbeat CPU 2 instructions: 260000073 cycles: 106436172 heartbeat IPC: 2.463 cumulative IPC: 2.386 (Simulation time: 04 hr 06 min 12 sec)
*** Reached end of trace: (5, "traces/canneal_big3.champsimtrace")
*** Reached end of trace: (1, "traces/canneal_big3.champsimtrace")
Heartbeat CPU 5 instructions: 430000001 cycles: 107503657 heartbeat IPC: 4 cumulative IPC: 4 (Simulation time: 04 hr 08 min 38 sec)
Heartbeat CPU 1 instructions: 430000001 cycles: 107503657 heartbeat IPC: 4 cumulative IPC: 4 (Simulation time: 04 hr 08 min 38 sec)
*** Reached end of trace: (0, "traces/canneal_big2.champsimtrace")
*** Reached end of trace: (4, "traces/canneal_big2.champsimtrace")
Heartbeat CPU 0 instructions: 430000001 cycles: 107503804 heartbeat IPC: 4 cumulative IPC: 4 (Simulation time: 04 hr 08 min 38 sec)
Heartbeat CPU 4 instructions: 430000001 cycles: 107503805 heartbeat IPC: 4 cumulative IPC: 4 (Simulation time: 04 hr 08 min 38 sec)
*** Reached end of trace: (6, "traces/canneal_big0.champsimtrace")
*** Reached end of trace: (2, "traces/canneal_big0.champsimtrace")
*** Reached end of trace: (5, "traces/canneal_big3.champsimtrace")
*** Reached end of trace: (1, "traces/canneal_big3.champsimtrace")
*** Reached end of trace: (0, "traces/canneal_big2.champsimtrace")
*** Reached end of trace: (4, "traces/canneal_big2.champsimtrace")
*** Reached end of trace: (5, "traces/canneal_big3.champsimtrace")
*** Reached end of trace: (1, "traces/canneal_big3.champsimtrace")
Heartbeat CPU 5 instructions: 440000001 cycles: 110003657 heartbeat IPC: 4 cumulative IPC: 4 (Simulation time: 04 hr 14 min 21 sec)
Heartbeat CPU 1 instructions: 440000001 cycles: 110003657 heartbeat IPC: 4 cumulative IPC: 4 (Simulation time: 04 hr 14 min 21 sec)
*** Reached end of trace: (0, "traces/canneal_big2.champsimtrace")
*** Reached end of trace: (4, "traces/canneal_big2.champsimtrace")
Heartbeat CPU 0 instructions: 440000001 cycles: 110003804 heartbeat IPC: 4 cumulative IPC: 4 (Simulation time: 04 hr 14 min 21 sec)
Heartbeat CPU 4 instructions: 440000001 cycles: 110003805 heartbeat IPC: 4 cumulative IPC: 4 (Simulation time: 04 hr 14 min 21 sec)
*** Reached end of trace: (6, "traces/canneal_big0.champsimtrace")
Heartbeat CPU 6 instructions: 270000076 cycles: 110455630 heartbeat IPC: 2.469 cumulative IPC: 2.388 (Simulation time: 04 hr 15 min 23 sec)
*** Reached end of trace: (2, "traces/canneal_big0.champsimtrace")
Heartbeat CPU 2 instructions: 270000076 cycles: 110485433 heartbeat IPC: 2.47 cumulative IPC: 2.39 (Simulation time: 04 hr 15 min 27 sec)
*** Reached end of trace: (5, "traces/canneal_big3.champsimtrace")
*** Reached end of trace: (1, "traces/canneal_big3.champsimtrace")
*** Reached end of trace: (0, "traces/canneal_big2.champsimtrace")
*** Reached end of trace: (4, "traces/canneal_big2.champsimtrace")
*** Reached end of trace: (6, "traces/canneal_big0.champsimtrace")
*** Reached end of trace: (5, "traces/canneal_big3.champsimtrace")
*** Reached end of trace: (1, "traces/canneal_big3.champsimtrace")
Heartbeat CPU 5 instructions: 450000001 cycles: 112503657 heartbeat IPC: 4 cumulative IPC: 4 (Simulation time: 04 hr 20 min 05 sec)
Heartbeat CPU 1 instructions: 450000001 cycles: 112503657 heartbeat IPC: 4 cumulative IPC: 4 (Simulation time: 04 hr 20 min 05 sec)
*** Reached end of trace: (0, "traces/canneal_big2.champsimtrace")
*** Reached end of trace: (4, "traces/canneal_big2.champsimtrace")
Heartbeat CPU 0 instructions: 450000001 cycles: 112503804 heartbeat IPC: 4 cumulative IPC: 4 (Simulation time: 04 hr 20 min 05 sec)
Heartbeat CPU 4 instructions: 450000001 cycles: 112503805 heartbeat IPC: 4 cumulative IPC: 4 (Simulation time: 04 hr 20 min 05 sec)
*** Reached end of trace: (2, "traces/canneal_big0.champsimtrace")
*** Reached end of trace: (5, "traces/canneal_big3.champsimtrace")
*** Reached end of trace: (1, "traces/canneal_big3.champsimtrace")
*** Reached end of trace: (0, "traces/canneal_big2.champsimtrace")
*** Reached end of trace: (4, "traces/canneal_big2.champsimtrace")
*** Reached end of trace: (6, "traces/canneal_big0.champsimtrace")
Heartbeat CPU 6 instructions: 280000079 cycles: 114496841 heartbeat IPC: 2.475 cumulative IPC: 2.392 (Simulation time: 04 hr 24 min 38 sec)
*** Reached end of trace: (2, "traces/canneal_big0.champsimtrace")
Heartbeat CPU 2 instructions: 280000079 cycles: 114525119 heartbeat IPC: 2.475 cumulative IPC: 2.394 (Simulation time: 04 hr 24 min 42 sec)
*** Reached end of trace: (5, "traces/canneal_big3.champsimtrace")
*** Reached end of trace: (1, "traces/canneal_big3.champsimtrace")
Heartbeat CPU 5 instructions: 460000001 cycles: 115003657 heartbeat IPC: 4 cumulative IPC: 4 (Simulation time: 04 hr 25 min 49 sec)
Heartbeat CPU 1 instructions: 460000001 cycles: 115003657 heartbeat IPC: 4 cumulative IPC: 4 (Simulation time: 04 hr 25 min 49 sec)
*** Reached end of trace: (0, "traces/canneal_big2.champsimtrace")
*** Reached end of trace: (4, "traces/canneal_big2.champsimtrace")
Heartbeat CPU 0 instructions: 460000001 cycles: 115003804 heartbeat IPC: 4 cumulative IPC: 4 (Simulation time: 04 hr 25 min 49 sec)
Heartbeat CPU 4 instructions: 460000001 cycles: 115003805 heartbeat IPC: 4 cumulative IPC: 4 (Simulation time: 04 hr 25 min 49 sec)
*** Reached end of trace: (5, "traces/canneal_big3.champsimtrace")
*** Reached end of trace: (1, "traces/canneal_big3.champsimtrace")
*** Reached end of trace: (0, "traces/canneal_big2.champsimtrace")
*** Reached end of trace: (4, "traces/canneal_big2.champsimtrace")
*** Reached end of trace: (6, "traces/canneal_big0.champsimtrace")
*** Reached end of trace: (2, "traces/canneal_big0.champsimtrace")
*** Reached end of trace: (5, "traces/canneal_big3.champsimtrace")
*** Reached end of trace: (1, "traces/canneal_big3.champsimtrace")
Heartbeat CPU 5 instructions: 470000001 cycles: 117503657 heartbeat IPC: 4 cumulative IPC: 4 (Simulation time: 04 hr 31 min 30 sec)
Heartbeat CPU 1 instructions: 470000001 cycles: 117503657 heartbeat IPC: 4 cumulative IPC: 4 (Simulation time: 04 hr 31 min 30 sec)
*** Reached end of trace: (0, "traces/canneal_big2.champsimtrace")
*** Reached end of trace: (4, "traces/canneal_big2.champsimtrace")
Heartbeat CPU 0 instructions: 470000001 cycles: 117503804 heartbeat IPC: 4 cumulative IPC: 4 (Simulation time: 04 hr 31 min 30 sec)
Heartbeat CPU 4 instructions: 470000001 cycles: 117503805 heartbeat IPC: 4 cumulative IPC: 4 (Simulation time: 04 hr 31 min 30 sec)
*** Reached end of trace: (6, "traces/canneal_big0.champsimtrace")
Heartbeat CPU 6 instructions: 290000082 cycles: 118526603 heartbeat IPC: 2.482 cumulative IPC: 2.396 (Simulation time: 04 hr 33 min 52 sec)
*** Reached end of trace: (2, "traces/canneal_big0.champsimtrace")
Heartbeat CPU 2 instructions: 290000082 cycles: 118556605 heartbeat IPC: 2.48 cumulative IPC: 2.398 (Simulation time: 04 hr 33 min 56 sec)
*** Reached end of trace: (7, "traces/canneal_big1.champsimtrace")
*** Reached end of trace: (3, "traces/canneal_big1.champsimtrace")
Heartbeat CPU 7 instructions: 80000014 cycles: 118653725 heartbeat IPC: 0.342 cumulative IPC: 0.3386 (Simulation time: 04 hr 34 min 10 sec)
Heartbeat CPU 3 instructions: 80000014 cycles: 118653726 heartbeat IPC: 0.342 cumulative IPC: 0.3385 (Simulation time: 04 hr 34 min 10 sec)
*** Reached end of trace: (5, "traces/canneal_big3.champsimtrace")
*** Reached end of trace: (1, "traces/canneal_big3.champsimtrace")
*** Reached end of trace: (0, "traces/canneal_big2.champsimtrace")
*** Reached end of trace: (4, "traces/canneal_big2.champsimtrace")
*** Reached end of trace: (5, "traces/canneal_big3.champsimtrace")
*** Reached end of trace: (1, "traces/canneal_big3.champsimtrace")
Heartbeat CPU 5 instructions: 480000001 cycles: 120003657 heartbeat IPC: 4 cumulative IPC: 4 (Simulation time: 04 hr 37 min 16 sec)
Heartbeat CPU 1 instructions: 480000001 cycles: 120003657 heartbeat IPC: 4 cumulative IPC: 4 (Simulation time: 04 hr 37 min 16 sec)
*** Reached end of trace: (0, "traces/canneal_big2.champsimtrace")
*** Reached end of trace: (4, "traces/canneal_big2.champsimtrace")
Heartbeat CPU 0 instructions: 480000001 cycles: 120003804 heartbeat IPC: 4 cumulative IPC: 4 (Simulation time: 04 hr 37 min 16 sec)
Heartbeat CPU 4 instructions: 480000001 cycles: 120003805 heartbeat IPC: 4 cumulative IPC: 4 (Simulation time: 04 hr 37 min 16 sec)
*** Reached end of trace: (6, "traces/canneal_big0.champsimtrace")
*** Reached end of trace: (2, "traces/canneal_big0.champsimtrace")
*** Reached end of trace: (5, "traces/canneal_big3.champsimtrace")
*** Reached end of trace: (1, "traces/canneal_big3.champsimtrace")
*** Reached end of trace: (0, "traces/canneal_big2.champsimtrace")
*** Reached end of trace: (4, "traces/canneal_big2.champsimtrace")
*** Reached end of trace: (5, "traces/canneal_big3.champsimtrace")
*** Reached end of trace: (1, "traces/canneal_big3.champsimtrace")
Heartbeat CPU 5 instructions: 490000001 cycles: 122503657 heartbeat IPC: 4 cumulative IPC: 4 (Simulation time: 04 hr 43 min 02 sec)
Heartbeat CPU 1 instructions: 490000001 cycles: 122503657 heartbeat IPC: 4 cumulative IPC: 4 (Simulation time: 04 hr 43 min 02 sec)
*** Reached end of trace: (0, "traces/canneal_big2.champsimtrace")
*** Reached end of trace: (4, "traces/canneal_big2.champsimtrace")
Heartbeat CPU 0 instructions: 490000001 cycles: 122503804 heartbeat IPC: 4 cumulative IPC: 4 (Simulation time: 04 hr 43 min 02 sec)
Heartbeat CPU 4 instructions: 490000001 cycles: 122503805 heartbeat IPC: 4 cumulative IPC: 4 (Simulation time: 04 hr 43 min 02 sec)
*** Reached end of trace: (6, "traces/canneal_big0.champsimtrace")
Heartbeat CPU 6 instructions: 300000085 cycles: 122567894 heartbeat IPC: 2.474 cumulative IPC: 2.399 (Simulation time: 04 hr 43 min 11 sec)
*** Reached end of trace: (2, "traces/canneal_big0.champsimtrace")
Heartbeat CPU 2 instructions: 300000085 cycles: 122598471 heartbeat IPC: 2.474 cumulative IPC: 2.401 (Simulation time: 04 hr 43 min 16 sec)
*** Reached end of trace: (5, "traces/canneal_big3.champsimtrace")
*** Reached end of trace: (1, "traces/canneal_big3.champsimtrace")
*** Reached end of trace: (0, "traces/canneal_big2.champsimtrace")
*** Reached end of trace: (4, "traces/canneal_big2.champsimtrace")
*** Reached end of trace: (6, "traces/canneal_big0.champsimtrace")
*** Reached end of trace: (2, "traces/canneal_big0.champsimtrace")
*** Reached end of trace: (5, "traces/canneal_big3.champsimtrace")
*** Reached end of trace: (1, "traces/canneal_big3.champsimtrace")
*** Reached end of trace: (0, "traces/canneal_big2.champsimtrace")
Heartbeat CPU 5 instructions: 500000001 cycles: 125003657 heartbeat IPC: 4 cumulative IPC: 4 (Simulation time: 04 hr 48 min 51 sec)
Heartbeat CPU 1 instructions: 500000001 cycles: 125003657 heartbeat IPC: 4 cumulative IPC: 4 (Simulation time: 04 hr 48 min 51 sec)
*** Reached end of trace: (4, "traces/canneal_big2.champsimtrace")
Heartbeat CPU 0 instructions: 500000001 cycles: 125003804 heartbeat IPC: 4 cumulative IPC: 4 (Simulation time: 04 hr 48 min 51 sec)
Heartbeat CPU 4 instructions: 500000001 cycles: 125003805 heartbeat IPC: 4 cumulative IPC: 4 (Simulation time: 04 hr 48 min 51 sec)
*** Reached end of trace: (5, "traces/canneal_big3.champsimtrace")
*** Reached end of trace: (1, "traces/canneal_big3.champsimtrace")
*** Reached end of trace: (0, "traces/canneal_big2.champsimtrace")
*** Reached end of trace: (4, "traces/canneal_big2.champsimtrace")
*** Reached end of trace: (6, "traces/canneal_big0.champsimtrace")
Heartbeat CPU 6 instructions: 310000088 cycles: 126604495 heartbeat IPC: 2.477 cumulative IPC: 2.403 (Simulation time: 04 hr 52 min 30 sec)
*** Reached end of trace: (2, "traces/canneal_big0.champsimtrace")
Heartbeat CPU 2 instructions: 310000088 cycles: 126634172 heartbeat IPC: 2.478 cumulative IPC: 2.405 (Simulation time: 04 hr 52 min 35 sec)
*** Reached end of trace: (5, "traces/canneal_big3.champsimtrace")
*** Reached end of trace: (1, "traces/canneal_big3.champsimtrace")
*** Reached end of trace: (0, "traces/canneal_big2.champsimtrace")
Heartbeat CPU 5 instructions: 510000001 cycles: 127503657 heartbeat IPC: 4 cumulative IPC: 4 (Simulation time: 04 hr 54 min 35 sec)
Heartbeat CPU 1 instructions: 510000001 cycles: 127503657 heartbeat IPC: 4 cumulative IPC: 4 (Simulation time: 04 hr 54 min 35 sec)
*** Reached end of trace: (4, "traces/canneal_big2.champsimtrace")
Heartbeat CPU 0 instructions: 510000001 cycles: 127503804 heartbeat IPC: 4 cumulative IPC: 4 (Simulation time: 04 hr 54 min 35 sec)
Heartbeat CPU 4 instructions: 510000001 cycles: 127503805 heartbeat IPC: 4 cumulative IPC: 4 (Simulation time: 04 hr 54 min 35 sec)
*** Reached end of trace: (6, "traces/canneal_big0.champsimtrace")
*** Reached end of trace: (2, "traces/canneal_big0.champsimtrace")
*** Reached end of trace: (5, "traces/canneal_big3.champsimtrace")
*** Reached end of trace: (1, "traces/canneal_big3.champsimtrace")
*** Reached end of trace: (0, "traces/canneal_big2.champsimtrace")
*** Reached end of trace: (4, "traces/canneal_big2.champsimtrace")
*** Reached end of trace: (5, "traces/canneal_big3.champsimtrace")
*** Reached end of trace: (1, "traces/canneal_big3.champsimtrace")
*** Reached end of trace: (0, "traces/canneal_big2.champsimtrace")
*** Reached end of trace: (4, "traces/canneal_big2.champsimtrace")
Heartbeat CPU 5 instructions: 520000001 cycles: 130003657 heartbeat IPC: 4 cumulative IPC: 4 (Simulation time: 05 hr 00 min 21 sec)
Heartbeat CPU 1 instructions: 520000001 cycles: 130003657 heartbeat IPC: 4 cumulative IPC: 4 (Simulation time: 05 hr 00 min 21 sec)
Heartbeat CPU 0 instructions: 520000001 cycles: 130003804 heartbeat IPC: 4 cumulative IPC: 4 (Simulation time: 05 hr 00 min 21 sec)
Heartbeat CPU 4 instructions: 520000001 cycles: 130003805 heartbeat IPC: 4 cumulative IPC: 4 (Simulation time: 05 hr 00 min 21 sec)
*** Reached end of trace: (6, "traces/canneal_big0.champsimtrace")
Heartbeat CPU 6 instructions: 320000091 cycles: 130635621 heartbeat IPC: 2.481 cumulative IPC: 2.406 (Simulation time: 05 hr 01 min 49 sec)
[...]
cpu5->cpu5_ITLB AVERAGE MISS LATENCY: - cycles
cpu5_ITLB COHERENCE INVALIDATIONS:          0
cpu5_ITLB COHERENCE WRITE-HIT OTHER-SHARER EVENTS:          0
cpu5_DTLB COHERENCE INVALIDATIONS:          0
cpu5_DTLB COHERENCE WRITE-HIT OTHER-SHARER EVENTS:          0
cpu4_STLB COHERENCE INVALIDATIONS:          0
cpu4_STLB COHERENCE WRITE-HIT OTHER-SHARER EVENTS:          0
cpu4_L2C COHERENCE INVALIDATIONS:          0
cpu4_L2C COHERENCE WRITE-HIT OTHER-SHARER EVENTS:          0
cpu4->cpu4_L1I TOTAL        ACCESS:  158065555 HIT:  158065555 MISS:          0 MSHR_MERGE:          0
cpu4->cpu4_L1I LOAD         ACCESS:  158065555 HIT:  158065555 MISS:          0 MSHR_MERGE:          0
cpu4->cpu4_L1I RFO          ACCESS:          0 HIT:          0 MISS:          0 MSHR_MERGE:          0
cpu4->cpu4_L1I PREFETCH     ACCESS:          0 HIT:          0 MISS:          0 MSHR_MERGE:          0
cpu4->cpu4_L1I WRITE        ACCESS:          0 HIT:          0 MISS:          0 MSHR_MERGE:          0
cpu4->cpu4_L1I TRANSLATION  ACCESS:          0 HIT:          0 MISS:          0 MSHR_MERGE:          0
cpu4->cpu4_L1I PREFETCH REQUESTED:          0 ISSUED:          0 USEFUL:          0 USELESS:          0
cpu4->cpu4_L1I AVERAGE MISS LATENCY: - cycles
cpu4_L1I COHERENCE INVALIDATIONS:          0
cpu4_L1I COHERENCE WRITE-HIT OTHER-SHARER EVENTS:          0
cpu4_L1D COHERENCE INVALIDATIONS:          0
cpu4_L1D COHERENCE WRITE-HIT OTHER-SHARER EVENTS:          0
cpu4->cpu4_ITLB TOTAL        ACCESS:  131511260 HIT:  131511260 MISS:          0 MSHR_MERGE:          0
cpu4->cpu4_ITLB LOAD         ACCESS:  131511260 HIT:  131511260 MISS:          0 MSHR_MERGE:          0
cpu4->cpu4_ITLB RFO          ACCESS:          0 HIT:          0 MISS:          0 MSHR_MERGE:          0
cpu4->cpu4_ITLB PREFETCH     ACCESS:          0 HIT:          0 MISS:          0 MSHR_MERGE:          0
cpu4->cpu4_ITLB WRITE        ACCESS:          0 HIT:          0 MISS:          0 MSHR_MERGE:          0
cpu4->cpu4_ITLB TRANSLATION  ACCESS:          0 HIT:          0 MISS:          0 MSHR_MERGE:          0
cpu4->cpu4_ITLB PREFETCH REQUESTED:          0 ISSUED:          0 USEFUL:          0 USELESS:          0
cpu4->cpu4_ITLB AVERAGE MISS LATENCY: - cycles
cpu4_ITLB COHERENCE INVALIDATIONS:          0
cpu4_ITLB COHERENCE WRITE-HIT OTHER-SHARER EVENTS:          0
cpu4_DTLB COHERENCE INVALIDATIONS:          0
cpu4_DTLB COHERENCE WRITE-HIT OTHER-SHARER EVENTS:          0
cpu3->cpu3_STLB TOTAL        ACCESS:    2220713 HIT:    2024493 MISS:     196220 MSHR_MERGE:          0
cpu3->cpu3_STLB LOAD         ACCESS:    2220713 HIT:    2024493 MISS:     196220 MSHR_MERGE:          0
cpu3->cpu3_STLB RFO          ACCESS:          0 HIT:          0 MISS:          0 MSHR_MERGE:          0
cpu3->cpu3_STLB PREFETCH     ACCESS:          0 HIT:          0 MISS:          0 MSHR_MERGE:          0
cpu3->cpu3_STLB WRITE        ACCESS:          0 HIT:          0 MISS:          0 MSHR_MERGE:          0
cpu3->cpu3_STLB TRANSLATION  ACCESS:          0 HIT:          0 MISS:          0 MSHR_MERGE:          0
cpu3->cpu3_STLB PREFETCH REQUESTED:          0 ISSUED:          0 USEFUL:          0 USELESS:          0
cpu3->cpu3_STLB AVERAGE MISS LATENCY: 497.9 cycles
cpu3_STLB COHERENCE INVALIDATIONS:          0
cpu3_STLB COHERENCE WRITE-HIT OTHER-SHARER EVENTS:          0
cpu3->cpu3_L2C TOTAL        ACCESS:    2352723 HIT:     411672 MISS:    1941051 MSHR_MERGE:          0
cpu3->cpu3_L2C LOAD         ACCESS:    1963895 HIT:     410592 MISS:    1553303 MSHR_MERGE:          0
cpu3->cpu3_L2C RFO          ACCESS:          0 HIT:          0 MISS:          0 MSHR_MERGE:          0
cpu3->cpu3_L2C PREFETCH     ACCESS:          0 HIT:          0 MISS:          0 MSHR_MERGE:          0
cpu3->cpu3_L2C WRITE        ACCESS:          0 HIT:          0 MISS:          0 MSHR_MERGE:          0
cpu3->cpu3_L2C TRANSLATION  ACCESS:     388828 HIT:       1080 MISS:     387748 MSHR_MERGE:          0
cpu3->cpu3_L2C PREFETCH REQUESTED:          0 ISSUED:          0 USEFUL:          0 USELESS:          0
cpu3->cpu3_L2C AVERAGE MISS LATENCY: 184.2 cycles
cpu3_L2C COHERENCE INVALIDATIONS:          0
cpu3_L2C COHERENCE WRITE-HIT OTHER-SHARER EVENTS:          0
cpu3->cpu3_L1I TOTAL        ACCESS:   33349600 HIT:   31226528 MISS:    2123072 MSHR_MERGE:     159177
cpu3->cpu3_L1I LOAD         ACCESS:   33349600 HIT:   31226528 MISS:    2123072 MSHR_MERGE:     159177
cpu3->cpu3_L1I RFO          ACCESS:          0 HIT:          0 MISS:          0 MSHR_MERGE:          0
cpu3->cpu3_L1I PREFETCH     ACCESS:          0 HIT:          0 MISS:          0 MSHR_MERGE:          0
cpu3->cpu3_L1I WRITE        ACCESS:          0 HIT:          0 MISS:          0 MSHR_MERGE:          0
cpu3->cpu3_L1I TRANSLATION  ACCESS:          0 HIT:          0 MISS:          0 MSHR_MERGE:          0
cpu3->cpu3_L1I PREFETCH REQUESTED:          0 ISSUED:          0 USEFUL:          0 USELESS:          0
cpu3->cpu3_L1I AVERAGE MISS LATENCY: 142.9 cycles
cpu3_L1I COHERENCE INVALIDATIONS:          0
cpu3_L1I COHERENCE WRITE-HIT OTHER-SHARER EVENTS:          0
cpu3->cpu3_L1D TOTAL        ACCESS:     392576 HIT:       3748 MISS:     388828 MSHR_MERGE:          0
cpu3->cpu3_L1D LOAD         ACCESS:          0 HIT:          0 MISS:          0 MSHR_MERGE:          0
cpu3->cpu3_L1D RFO          ACCESS:          0 HIT:          0 MISS:          0 MSHR_MERGE:          0
cpu3->cpu3_L1D PREFETCH     ACCESS:          0 HIT:          0 MISS:          0 MSHR_MERGE:          0
cpu3->cpu3_L1D WRITE        ACCESS:          0 HIT:          0 MISS:          0 MSHR_MERGE:          0
cpu3->cpu3_L1D TRANSLATION  ACCESS:     392576 HIT:       3748 MISS:     388828 MSHR_MERGE:          0
cpu3->cpu3_L1D PREFETCH REQUESTED:          0 ISSUED:          0 USEFUL:          0 USELESS:          0
cpu3->cpu3_L1D AVERAGE MISS LATENCY: 245.2 cycles
cpu3_L1D COHERENCE INVALIDATIONS:          0
cpu3_L1D COHERENCE WRITE-HIT OTHER-SHARER EVENTS:          0
cpu3->cpu3_ITLB TOTAL        ACCESS:   32813421 HIT:   30541431 MISS:    2271990 MSHR_MERGE:      51277
cpu3->cpu3_ITLB LOAD         ACCESS:   32813421 HIT:   30541431 MISS:    2271990 MSHR_MERGE:      51277
cpu3->cpu3_ITLB RFO          ACCESS:          0 HIT:          0 MISS:          0 MSHR_MERGE:          0
cpu3->cpu3_ITLB PREFETCH     ACCESS:          0 HIT:          0 MISS:          0 MSHR_MERGE:          0
cpu3->cpu3_ITLB WRITE        ACCESS:          0 HIT:          0 MISS:          0 MSHR_MERGE:          0
cpu3->cpu3_ITLB TRANSLATION  ACCESS:          0 HIT:          0 MISS:          0 MSHR_MERGE:          0
cpu3->cpu3_ITLB PREFETCH REQUESTED:          0 ISSUED:          0 USEFUL:          0 USELESS:          0
cpu3->cpu3_ITLB AVERAGE MISS LATENCY: 48.08 cycles
cpu3_ITLB COHERENCE INVALIDATIONS:          0
cpu3_ITLB COHERENCE WRITE-HIT OTHER-SHARER EVENTS:          0
cpu3_DTLB COHERENCE INVALIDATIONS:          0
cpu3_DTLB COHERENCE WRITE-HIT OTHER-SHARER EVENTS:          0
cpu2->cpu2_STLB TOTAL        ACCESS:     272146 HIT:     272146 MISS:          0 MSHR_MERGE:          0
cpu2->cpu2_STLB LOAD         ACCESS:     272146 HIT:     272146 MISS:          0 MSHR_MERGE:          0
cpu2->cpu2_STLB RFO          ACCESS:          0 HIT:          0 MISS:          0 MSHR_MERGE:          0
cpu2->cpu2_STLB PREFETCH     ACCESS:          0 HIT:          0 MISS:          0 MSHR_MERGE:          0
cpu2->cpu2_STLB WRITE        ACCESS:          0 HIT:          0 MISS:          0 MSHR_MERGE:          0
cpu2->cpu2_STLB TRANSLATION  ACCESS:          0 HIT:          0 MISS:          0 MSHR_MERGE:          0
cpu2->cpu2_STLB PREFETCH REQUESTED:          0 ISSUED:          0 USEFUL:          0 USELESS:          0
cpu2->cpu2_STLB AVERAGE MISS LATENCY: - cycles
cpu2_STLB COHERENCE INVALIDATIONS:          0
cpu2_STLB COHERENCE WRITE-HIT OTHER-SHARER EVENTS:          0
cpu2->cpu2_L2C TOTAL        ACCESS:    8724664 HIT:    4231813 MISS:    4492851 MSHR_MERGE:          0
cpu2->cpu2_L2C LOAD         ACCESS:    1374355 HIT:     463500 MISS:     910855 MSHR_MERGE:          0
cpu2->cpu2_L2C RFO          ACCESS:    3646980 HIT:      65129 MISS:    3581851 MSHR_MERGE:          0
cpu2->cpu2_L2C PREFETCH     ACCESS:          0 HIT:          0 MISS:          0 MSHR_MERGE:          0
cpu2->cpu2_L2C WRITE        ACCESS:    3703329 HIT:    3703184 MISS:        145 MSHR_MERGE:          0
cpu2->cpu2_L2C TRANSLATION  ACCESS:          0 HIT:          0 MISS:          0 MSHR_MERGE:          0
cpu2->cpu2_L2C PREFETCH REQUESTED:          0 ISSUED:          0 USEFUL:          0 USELESS:          0
cpu2->cpu2_L2C AVERAGE MISS LATENCY: 62.68 cycles
cpu2_L2C COHERENCE INVALIDATIONS:          0
cpu2_L2C COHERENCE WRITE-HIT OTHER-SHARER EVENTS:          0
cpu2->cpu2_L1I TOTAL        ACCESS:  113036271 HIT:  112766719 MISS:     269552 MSHR_MERGE:      72774
cpu2->cpu2_L1I LOAD         ACCESS:  113036271 HIT:  112766719 MISS:     269552 MSHR_MERGE:      72774
cpu2->cpu2_L1I RFO          ACCESS:          0 HIT:          0 MISS:          0 MSHR_MERGE:          0
cpu2->cpu2_L1I PREFETCH     ACCESS:          0 HIT:          0 MISS:          0 MSHR_MERGE:          0
cpu2->cpu2_L1I WRITE        ACCESS:          0 HIT:          0 MISS:          0 MSHR_MERGE:          0
cpu2->cpu2_L1I TRANSLATION  ACCESS:          0 HIT:          0 MISS:          0 MSHR_MERGE:          0
cpu2->cpu2_L1I PREFETCH REQUESTED:          0 ISSUED:          0 USEFUL:          0 USELESS:          0
cpu2->cpu2_L1I AVERAGE MISS LATENCY: 227.3 cycles
cpu2_L1I COHERENCE INVALIDATIONS:          0
cpu2_L1I COHERENCE WRITE-HIT OTHER-SHARER EVENTS:          0
cpu2->cpu2_L1D TOTAL        ACCESS:  145754612 HIT:  131072556 MISS:   14682056 MSHR_MERGE:    9852766
cpu2->cpu2_L1D LOAD         ACCESS:   13760957 HIT:   12006559 MISS:    1754398 MSHR_MERGE:     576821
cpu2->cpu2_L1D RFO          ACCESS:          0 HIT:          0 MISS:          0 MSHR_MERGE:          0
cpu2->cpu2_L1D PREFETCH     ACCESS:          0 HIT:          0 MISS:          0 MSHR_MERGE:          0
cpu2->cpu2_L1D WRITE        ACCESS:  131993655 HIT:  119065997 MISS:   12927658 MSHR_MERGE:    9275945
cpu2->cpu2_L1D TRANSLATION  ACCESS:          0 HIT:          0 MISS:          0 MSHR_MERGE:          0
cpu2->cpu2_L1D PREFETCH REQUESTED:          0 ISSUED:          0 USEFUL:          0 USELESS:          0
cpu2->cpu2_L1D AVERAGE MISS LATENCY: 57.26 cycles
cpu2_L1D COHERENCE INVALIDATIONS:          0
cpu2_L1D COHERENCE WRITE-HIT OTHER-SHARER EVENTS:          0
cpu2->cpu2_ITLB TOTAL        ACCESS:   96517548 HIT:   96477140 MISS:      40408 MSHR_MERGE:      15612
cpu2->cpu2_ITLB LOAD         ACCESS:   96517548 HIT:   96477140 MISS:      40408 MSHR_MERGE:      15612
cpu2->cpu2_ITLB RFO          ACCESS:          0 HIT:          0 MISS:          0 MSHR_MERGE:          0
cpu2->cpu2_ITLB PREFETCH     ACCESS:          0 HIT:          0 MISS:          0 MSHR_MERGE:          0
cpu2->cpu2_ITLB WRITE        ACCESS:          0 HIT:          0 MISS:          0 MSHR_MERGE:          0
cpu2->cpu2_ITLB TRANSLATION  ACCESS:          0 HIT:          0 MISS:          0 MSHR_MERGE:          0
cpu2->cpu2_ITLB PREFETCH REQUESTED:          0 ISSUED:          0 USEFUL:          0 USELESS:          0
cpu2->cpu2_ITLB AVERAGE MISS LATENCY: 4.005 cycles
cpu2_ITLB COHERENCE INVALIDATIONS:          0
cpu2_ITLB COHERENCE WRITE-HIT OTHER-SHARER EVENTS:          0
cpu2->cpu2_DTLB TOTAL        ACCESS:  118217754 HIT:  117898858 MISS:     318896 MSHR_MERGE:      71546
cpu2->cpu2_DTLB LOAD         ACCESS:  118217754 HIT:  117898858 MISS:     318896 MSHR_MERGE:      71546
cpu2->cpu2_DTLB RFO          ACCESS:          0 HIT:          0 MISS:          0 MSHR_MERGE:          0
cpu2->cpu2_DTLB PREFETCH     ACCESS:          0 HIT:          0 MISS:          0 MSHR_MERGE:          0
cpu2->cpu2_DTLB WRITE        ACCESS:          0 HIT:          0 MISS:          0 MSHR_MERGE:          0
cpu2->cpu2_DTLB TRANSLATION  ACCESS:          0 HIT:          0 MISS:          0 MSHR_MERGE:          0
cpu2->cpu2_DTLB PREFETCH REQUESTED:          0 ISSUED:          0 USEFUL:          0 USELESS:          0
cpu2->cpu2_DTLB AVERAGE MISS LATENCY: 4 cycles
cpu2_DTLB COHERENCE INVALIDATIONS:          0
cpu2_DTLB COHERENCE WRITE-HIT OTHER-SHARER EVENTS:          0
cpu1_STLB COHERENCE INVALIDATIONS:          0
cpu1_STLB COHERENCE WRITE-HIT OTHER-SHARER EVENTS:          0
cpu1_L2C COHERENCE INVALIDATIONS:          0
cpu1_L2C COHERENCE WRITE-HIT OTHER-SHARER EVENTS:          0
cpu1->cpu1_L1I TOTAL        ACCESS:  169192773 HIT:  169192773 MISS:          0 MSHR_MERGE:          0
cpu1->cpu1_L1I LOAD         ACCESS:  169192773 HIT:  169192773 MISS:          0 MSHR_MERGE:          0
cpu1->cpu1_L1I RFO          ACCESS:          0 HIT:          0 MISS:          0 MSHR_MERGE:          0
cpu1->cpu1_L1I PREFETCH     ACCESS:          0 HIT:          0 MISS:          0 MSHR_MERGE:          0
cpu1->cpu1_L1I WRITE        ACCESS:          0 HIT:          0 MISS:          0 MSHR_MERGE:          0
cpu1->cpu1_L1I TRANSLATION  ACCESS:          0 HIT:          0 MISS:          0 MSHR_MERGE:          0
cpu1->cpu1_L1I PREFETCH REQUESTED:          0 ISSUED:          0 USEFUL:          0 USELESS:          0
cpu1->cpu1_L1I AVERAGE MISS LATENCY: - cycles
cpu1_L1I COHERENCE INVALIDATIONS:          0
cpu1_L1I COHERENCE WRITE-HIT OTHER-SHARER EVENTS:          0
cpu1_L1D COHERENCE INVALIDATIONS:          0
cpu1_L1D COHERENCE WRITE-HIT OTHER-SHARER EVENTS:          0
cpu1->cpu1_ITLB TOTAL        ACCESS:  141213031 HIT:  141213031 MISS:          0 MSHR_MERGE:          0
cpu1->cpu1_ITLB LOAD         ACCESS:  141213031 HIT:  141213031 MISS:          0 MSHR_MERGE:          0
cpu1->cpu1_ITLB RFO          ACCESS:          0 HIT:          0 MISS:          0 MSHR_MERGE:          0
cpu1->cpu1_ITLB PREFETCH     ACCESS:          0 HIT:          0 MISS:          0 MSHR_MERGE:          0
cpu1->cpu1_ITLB WRITE        ACCESS:          0 HIT:          0 MISS:          0 MSHR_MERGE:          0
cpu1->cpu1_ITLB TRANSLATION  ACCESS:          0 HIT:          0 MISS:          0 MSHR_MERGE:          0
cpu1->cpu1_ITLB PREFETCH REQUESTED:          0 ISSUED:          0 USEFUL:          0 USELESS:          0
cpu1->cpu1_ITLB AVERAGE MISS LATENCY: - cycles
cpu1_ITLB COHERENCE INVALIDATIONS:          0
cpu1_ITLB COHERENCE WRITE-HIT OTHER-SHARER EVENTS:          0
cpu1_DTLB COHERENCE INVALIDATIONS:          0
cpu1_DTLB COHERENCE WRITE-HIT OTHER-SHARER EVENTS:          0
cpu0_STLB COHERENCE INVALIDATIONS:          0
cpu0_STLB COHERENCE WRITE-HIT OTHER-SHARER EVENTS:          0
cpu0_L2C COHERENCE INVALIDATIONS:          0
cpu0_L2C COHERENCE WRITE-HIT OTHER-SHARER EVENTS:          0
cpu0->cpu0_L1I TOTAL        ACCESS:  169328393 HIT:  169328393 MISS:          0 MSHR_MERGE:          0
cpu0->cpu0_L1I LOAD         ACCESS:  169328393 HIT:  169328393 MISS:          0 MSHR_MERGE:          0
cpu0->cpu0_L1I RFO          ACCESS:          0 HIT:          0 MISS:          0 MSHR_MERGE:          0
cpu0->cpu0_L1I PREFETCH     ACCESS:          0 HIT:          0 MISS:          0 MSHR_MERGE:          0
cpu0->cpu0_L1I WRITE        ACCESS:          0 HIT:          0 MISS:          0 MSHR_MERGE:          0
cpu0->cpu0_L1I TRANSLATION  ACCESS:          0 HIT:          0 MISS:          0 MSHR_MERGE:          0
cpu0->cpu0_L1I PREFETCH REQUESTED:          0 ISSUED:          0 USEFUL:          0 USELESS:          0
cpu0->cpu0_L1I AVERAGE MISS LATENCY: - cycles
cpu0_L1I COHERENCE INVALIDATIONS:          0
cpu0_L1I COHERENCE WRITE-HIT OTHER-SHARER EVENTS:          0
cpu0_L1D COHERENCE INVALIDATIONS:          0
cpu0_L1D COHERENCE WRITE-HIT OTHER-SHARER EVENTS:          0
cpu0->cpu0_ITLB TOTAL        ACCESS:  141284798 HIT:  141284798 MISS:          0 MSHR_MERGE:          0
cpu0->cpu0_ITLB LOAD         ACCESS:  141284798 HIT:  141284798 MISS:          0 MSHR_MERGE:          0
cpu0->cpu0_ITLB RFO          ACCESS:          0 HIT:          0 MISS:          0 MSHR_MERGE:          0
cpu0->cpu0_ITLB PREFETCH     ACCESS:          0 HIT:          0 MISS:          0 MSHR_MERGE:          0
cpu0->cpu0_ITLB WRITE        ACCESS:          0 HIT:          0 MISS:          0 MSHR_MERGE:          0
cpu0->cpu0_ITLB TRANSLATION  ACCESS:          0 HIT:          0 MISS:          0 MSHR_MERGE:          0
cpu0->cpu0_ITLB PREFETCH REQUESTED:          0 ISSUED:          0 USEFUL:          0 USELESS:          0
cpu0->cpu0_ITLB AVERAGE MISS LATENCY: - cycles
cpu0_ITLB COHERENCE INVALIDATIONS:          0
cpu0_ITLB COHERENCE WRITE-HIT OTHER-SHARER EVENTS:          0
cpu0_DTLB COHERENCE INVALIDATIONS:          0
cpu0_DTLB COHERENCE WRITE-HIT OTHER-SHARER EVENTS:          0
cpu2->LLC TOTAL        ACCESS:    8114341 HIT:    6908725 MISS:    1205616 MSHR_MERGE:     270917
cpu2->LLC LOAD         ACCESS:     910855 HIT:     519979 MISS:     390876 MSHR_MERGE:     206886
cpu2->LLC RFO          ACCESS:    3581851 HIT:    3097770 MISS:     484081 MSHR_MERGE:      64031
cpu2->LLC PREFETCH     ACCESS:          0 HIT:          0 MISS:          0 MSHR_MERGE:          0
cpu2->LLC WRITE        ACCESS:    3621635 HIT:    3290976 MISS:     330659 MSHR_MERGE:          0
cpu2->LLC TRANSLATION  ACCESS:          0 HIT:          0 MISS:          0 MSHR_MERGE:          0
cpu2->LLC PREFETCH REQUESTED:          0 ISSUED:          0 USEFUL:          0 USELESS:          0
cpu2->LLC AVERAGE MISS LATENCY: 763.1 cycles
cpu3->LLC TOTAL        ACCESS:    1941051 HIT:     432142 MISS:    1508909 MSHR_MERGE:     358485
cpu3->LLC LOAD         ACCESS:    1553303 HIT:     431709 MISS:    1121594 MSHR_MERGE:     358485
cpu3->LLC RFO          ACCESS:          0 HIT:          0 MISS:          0 MSHR_MERGE:          0
cpu3->LLC PREFETCH     ACCESS:          0 HIT:          0 MISS:          0 MSHR_MERGE:          0
cpu3->LLC WRITE        ACCESS:          0 HIT:          0 MISS:          0 MSHR_MERGE:          0
cpu3->LLC TRANSLATION  ACCESS:     387748 HIT:        433 MISS:     387315 MSHR_MERGE:          0
cpu3->LLC PREFETCH REQUESTED:          0 ISSUED:          0 USEFUL:          0 USELESS:          0
cpu3->LLC AVERAGE MISS LATENCY: 1081 cycles
cpu6->LLC TOTAL        ACCESS:    8111608 HIT:    6408802 MISS:    1702806 MSHR_MERGE:     102779
cpu6->LLC LOAD         ACCESS:     910961 HIT:     466674 MISS:     444287 MSHR_MERGE:      91780
cpu6->LLC RFO          ACCESS:    3580145 HIT:    2834527 MISS:     745618 MSHR_MERGE:      10999
cpu6->LLC PREFETCH     ACCESS:          0 HIT:          0 MISS:          0 MSHR_MERGE:          0
cpu6->LLC WRITE        ACCESS:    3620502 HIT:    3107601 MISS:     512901 MSHR_MERGE:          0
cpu6->LLC TRANSLATION  ACCESS:          0 HIT:          0 MISS:          0 MSHR_MERGE:          0
cpu6->LLC PREFETCH REQUESTED:          0 ISSUED:          0 USEFUL:          0 USELESS:          0
cpu6->LLC AVERAGE MISS LATENCY: 587.7 cycles
cpu7->LLC TOTAL        ACCESS:    1940179 HIT:     436665 MISS:    1503514 MSHR_MERGE:     730643
cpu7->LLC LOAD         ACCESS:    1552373 HIT:     436264 MISS:    1116109 MSHR_MERGE:     730643
cpu7->LLC RFO          ACCESS:          0 HIT:          0 MISS:          0 MSHR_MERGE:          0
cpu7->LLC PREFETCH     ACCESS:          0 HIT:          0 MISS:          0 MSHR_MERGE:          0
cpu7->LLC WRITE        ACCESS:          0 HIT:          0 MISS:          0 MSHR_MERGE:          0
cpu7->LLC TRANSLATION  ACCESS:     387806 HIT:        401 MISS:     387405 MSHR_MERGE:          0
cpu7->LLC PREFETCH REQUESTED:          0 ISSUED:          0 USEFUL:          0 USELESS:          0
cpu7->LLC AVERAGE MISS LATENCY: 734.9 cycles
LLC COHERENCE INVALIDATIONS:    6598327
LLC COHERENCE WRITE-HIT OTHER-SHARER EVENTS:    6397889

DRAM Statistics

Channel 0 RQ ROW_BUFFER_HIT:      87073
  ROW_BUFFER_MISS:    3522567
  AVG DBUS CONGESTED CYCLE: 8.395
Channel 0 WQ ROW_BUFFER_HIT:     271324
  ROW_BUFFER_MISS:     792574
  FULL:       3602
Channel 0 REFRESHES ISSUED:      24552

VMEM ALIASED FILLS (cross-CPU shared-page hits): 303709
