[VMEM] WARNING: physical memory size is smaller than virtual memory size.

*** ChampSim Multicore Out-of-Order Simulator ***
Warmup Instructions: 50000000
Simulation Instructions: 100000000
Number of CPUs: 8
Page size: 4096

Off-chip DRAM Size: 16 GiB Channels: 1 Width: 64-bit Data Rate: 3205 MT/s
*** Reached end of trace: (5, "traces/canneal_big3.champsimtrace")
*** Reached end of trace: (1, "traces/canneal_big3.champsimtrace")
*** Reached end of trace: (0, "traces/canneal_big2.champsimtrace")
*** Reached end of trace: (4, "traces/canneal_big2.champsimtrace")
*** Reached end of trace: (6, "traces/canneal_big0.champsimtrace")
*** Reached end of trace: (2, "traces/canneal_big0.champsimtrace")
*** Reached end of trace: (5, "traces/canneal_big3.champsimtrace")
*** Reached end of trace: (1, "traces/canneal_big3.champsimtrace")
Heartbeat CPU 5 instructions: 10000001 cycles: 2503657 heartbeat IPC: 3.994 cumulative IPC: 3.994 (Simulation time: 00 hr 06 min 02 sec)
Heartbeat CPU 1 instructions: 10000001 cycles: 2503657 heartbeat IPC: 3.994 cumulative IPC: 3.994 (Simulation time: 00 hr 06 min 02 sec)
*** Reached end of trace: (0, "traces/canneal_big2.champsimtrace")
*** Reached end of trace: (4, "traces/canneal_big2.champsimtrace")
Heartbeat CPU 0 instructions: 10000001 cycles: 2503804 heartbeat IPC: 3.994 cumulative IPC: 3.994 (Simulation time: 00 hr 06 min 02 sec)
Heartbeat CPU 4 instructions: 10000001 cycles: 2503805 heartbeat IPC: 3.994 cumulative IPC: 3.994 (Simulation time: 00 hr 06 min 02 sec)
*** Reached end of trace: (5, "traces/canneal_big3.champsimtrace")
*** Reached end of trace: (1, "traces/canneal_big3.champsimtrace")
*** Reached end of trace: (0, "traces/canneal_big2.champsimtrace")
*** Reached end of trace: (4, "traces/canneal_big2.champsimtrace")
*** Reached end of trace: (6, "traces/canneal_big0.champsimtrace")
Heartbeat CPU 6 instructions: 10000003 cycles: 3985075 heartbeat IPC: 2.509 cumulative IPC: 2.509 (Simulation time: 00 hr 09 min 34 sec)
*** Reached end of trace: (2, "traces/canneal_big0.champsimtrace")
Heartbeat CPU 2 instructions: 10000003 cycles: 3993016 heartbeat IPC: 2.504 cumulative IPC: 2.504 (Simulation time: 00 hr 09 min 36 sec)
*** Reached end of trace: (7, "traces/canneal_big1.champsimtrace")
*** Reached end of trace: (3, "traces/canneal_big1.champsimtrace")
*** Reached end of trace: (5, "traces/canneal_big3.champsimtrace")
*** Reached end of trace: (1, "traces/canneal_big3.champsimtrace")
Heartbeat CPU 5 instructions: 20000001 cycles: 5003657 heartbeat IPC: 4 cumulative IPC: 3.997 (Simulation time: 00 hr 12 min 17 sec)
Heartbeat CPU 1 instructions: 20000001 cycles: 5003657 heartbeat IPC: 4 cumulative IPC: 3.997 (Simulation time: 00 hr 12 min 17 sec)
*** Reached end of trace: (0, "traces/canneal_big2.champsimtrace")
*** Reached end of trace: (4, "traces/canneal_big2.champsimtrace")
Heartbeat CPU 0 instructions: 20000001 cycles: 5003804 heartbeat IPC: 4 cumulative IPC: 3.997 (Simulation time: 00 hr 12 min 17 sec)
Heartbeat CPU 4 instructions: 20000001 cycles: 5003805 heartbeat IPC: 4 cumulative IPC: 3.997 (Simulation time: 00 hr 12 min 17 sec)
*** Reached end of trace: (6, "traces/canneal_big0.champsimtrace")
*** Reached end of trace: (2, "traces/canneal_big0.champsimtrace")
*** Reached end of trace: (5, "traces/canneal_big3.champsimtrace")
*** Reached end of trace: (1, "traces/canneal_big3.champsimtrace")
*** Reached end of trace: (0, "traces/canneal_big2.champsimtrace")
*** Reached end of trace: (4, "traces/canneal_big2.champsimtrace")
*** Reached end of trace: (3, "traces/canneal_big1.champsimtrace")
Heartbeat CPU 3 instructions: 10000002 cycles: 7297624 heartbeat IPC: 1.37 cumulative IPC: 1.37 (Simulation time: 00 hr 18 min 24 sec)
*** Reached end of trace: (7, "traces/canneal_big1.champsimtrace")
Heartbeat CPU 7 instructions: 10000002 cycles: 7297796 heartbeat IPC: 1.37 cumulative IPC: 1.37 (Simulation time: 00 hr 18 min 24 sec)
*** Reached end of trace: (5, "traces/canneal_big3.champsimtrace")
*** Reached end of trace: (1, "traces/canneal_big3.champsimtrace")
Heartbeat CPU 5 instructions: 30000001 cycles: 7503657 heartbeat IPC: 4 cumulative IPC: 3.998 (Simulation time: 00 hr 18 min 54 sec)
Heartbeat CPU 1 instructions: 30000001 cycles: 7503657 heartbeat IPC: 4 cumulative IPC: 3.998 (Simulation time: 00 hr 18 min 54 sec)
*** Reached end of trace: (0, "traces/canneal_big2.champsimtrace")
*** Reached end of trace: (4, "traces/canneal_big2.champsimtrace")
Heartbeat CPU 0 instructions: 30000001 cycles: 7503804 heartbeat IPC: 4 cumulative IPC: 3.998 (Simulation time: 00 hr 18 min 54 sec)
Heartbeat CPU 4 instructions: 30000001 cycles: 7503805 heartbeat IPC: 4 cumulative IPC: 3.998 (Simulation time: 00 hr 18 min 54 sec)
*** Reached end of trace: (6, "traces/canneal_big0.champsimtrace")
Heartbeat CPU 6 instructions: 20000006 cycles: 7825440 heartbeat IPC: 2.604 cumulative IPC: 2.556 (Simulation time: 00 hr 19 min 41 sec)
*** Reached end of trace: (2, "traces/canneal_big0.champsimtrace")
Heartbeat CPU 2 instructions: 20000006 cycles: 7848016 heartbeat IPC: 2.594 cumulative IPC: 2.548 (Simulation time: 00 hr 19 min 45 sec)
*** Reached end of trace: (5, "traces/canneal_big3.champsimtrace")
*** Reached end of trace: (1, "traces/canneal_big3.champsimtrace")
*** Reached end of trace: (0, "traces/canneal_big2.champsimtrace")
*** Reached end of trace: (4, "traces/canneal_big2.champsimtrace")
*** Reached end of trace: (6, "traces/canneal_big0.champsimtrace")
*** Reached end of trace: (2, "traces/canneal_big0.champsimtrace")
*** Reached end of trace: (5, "traces/canneal_big3.champsimtrace")
*** Reached end of trace: (1, "traces/canneal_big3.champsimtrace")
Heartbeat CPU 5 instructions: 40000001 cycles: 10003657 heartbeat IPC: 4 cumulative IPC: 3.999 (Simulation time: 00 hr 25 min 17 sec)
Heartbeat CPU 1 instructions: 40000001 cycles: 10003657 heartbeat IPC: 4 cumulative IPC: 3.999 (Simulation time: 00 hr 25 min 17 sec)
*** Reached end of trace: (0, "traces/canneal_big2.champsimtrace")
*** Reached end of trace: (4, "traces/canneal_big2.champsimtrace")
Heartbeat CPU 0 instructions: 40000001 cycles: 10003804 heartbeat IPC: 4 cumulative IPC: 3.998 (Simulation time: 00 hr 25 min 17 sec)
Heartbeat CPU 4 instructions: 40000001 cycles: 10003805 heartbeat IPC: 4 cumulative IPC: 3.998 (Simulation time: 00 hr 25 min 17 sec)
*** Reached end of trace: (3, "traces/canneal_big1.champsimtrace")
*** Reached end of trace: (7, "traces/canneal_big1.champsimtrace")
*** Reached end of trace: (5, "traces/canneal_big3.champsimtrace")
*** Reached end of trace: (1, "traces/canneal_big3.champsimtrace")
*** Reached end of trace: (0, "traces/canneal_big2.champsimtrace")
*** Reached end of trace: (4, "traces/canneal_big2.champsimtrace")
*** Reached end of trace: (6, "traces/canneal_big0.champsimtrace")
Heartbeat CPU 6 instructions: 30000009 cycles: 11665616 heartbeat IPC: 2.604 cumulative IPC: 2.572 (Simulation time: 00 hr 29 min 29 sec)
*** Reached end of trace: (2, "traces/canneal_big0.champsimtrace")
Heartbeat CPU 2 instructions: 30000009 cycles: 11703012 heartbeat IPC: 2.594 cumulative IPC: 2.563 (Simulation time: 00 hr 29 min 36 sec)
*** Reached end of trace: (5, "traces/canneal_big3.champsimtrace")
*** Reached end of trace: (1, "traces/canneal_big3.champsimtrace")
Heartbeat CPU 5 instructions: 50000001 cycles: 12503657 heartbeat IPC: 4 cumulative IPC: 3.999 (Simulation time: 00 hr 31 min 43 sec)
Heartbeat CPU 1 instructions: 50000001 cycles: 12503657 heartbeat IPC: 4 cumulative IPC: 3.999 (Simulation time: 00 hr 31 min 43 sec)
Warmup finished CPU 5 instructions: 50000001 cycles: 12503657 cumulative IPC: 3.999 (Simulation time: 00 hr 31 min 43 sec)
Warmup finished CPU 1 instructions: 50000001 cycles: 12503657 cumulative IPC: 3.999 (Simulation time: 00 hr 31 min 43 sec)
*** Reached end of trace: (0, "traces/canneal_big2.champsimtrace")
*** Reached end of trace: (4, "traces/canneal_big2.champsimtrace")
Heartbeat CPU 0 instructions: 50000001 cycles: 12503804 heartbeat IPC: 4 cumulative IPC: 3.999 (Simulation time: 00 hr 31 min 43 sec)
Warmup finished CPU 0 instructions: 50000001 cycles: 12503804 cumulative IPC: 3.999 (Simulation time: 00 hr 31 min 43 sec)
Heartbeat CPU 4 instructions: 50000001 cycles: 12503805 heartbeat IPC: 4 cumulative IPC: 3.999 (Simulation time: 00 hr 31 min 43 sec)
Warmup finished CPU 4 instructions: 50000001 cycles: 12503805 cumulative IPC: 3.999 (Simulation time: 00 hr 31 min 43 sec)
*** Reached end of trace: (3, "traces/canneal_big1.champsimtrace")
Heartbeat CPU 3 instructions: 20000004 cycles: 12988335 heartbeat IPC: 1.757 cumulative IPC: 1.54 (Simulation time: 00 hr 32 min 55 sec)
*** Reached end of trace: (7, "traces/canneal_big1.champsimtrace")
Heartbeat CPU 7 instructions: 20000004 cycles: 12988769 heartbeat IPC: 1.757 cumulative IPC: 1.54 (Simulation time: 00 hr 32 min 55 sec)
*** Reached end of trace: (6, "traces/canneal_big0.champsimtrace")
*** Reached end of trace: (2, "traces/canneal_big0.champsimtrace")
*** Reached end of trace: (5, "traces/canneal_big3.champsimtrace")
*** Reached end of trace: (1, "traces/canneal_big3.champsimtrace")
*** Reached end of trace: (0, "traces/canneal_big2.champsimtrace")
*** Reached end of trace: (4, "traces/canneal_big2.champsimtrace")
*** Reached end of trace: (5, "traces/canneal_big3.champsimtrace")
*** Reached end of trace: (1, "traces/canneal_big3.champsimtrace")
Heartbeat CPU 5 instructions: 60000001 cycles: 15003657 heartbeat IPC: 4 cumulative IPC: 3.999 (Simulation time: 00 hr 37 min 49 sec)
Heartbeat CPU 1 instructions: 60000001 cycles: 15003657 heartbeat IPC: 4 cumulative IPC: 3.999 (Simulation time: 00 hr 37 min 49 sec)
*** Reached end of trace: (0, "traces/canneal_big2.champsimtrace")
*** Reached end of trace: (4, "traces/canneal_big2.champsimtrace")
Heartbeat CPU 0 instructions: 60000001 cycles: 15003804 heartbeat IPC: 4 cumulative IPC: 3.999 (Simulation time: 00 hr 37 min 49 sec)
Heartbeat CPU 4 instructions: 60000001 cycles: 15003805 heartbeat IPC: 4 cumulative IPC: 3.999 (Simulation time: 00 hr 37 min 49 sec)
*** Reached end of trace: (6, "traces/canneal_big0.champsimtrace")
Heartbeat CPU 6 instructions: 40000012 cycles: 15506017 heartbeat IPC: 2.604 cumulative IPC: 2.58 (Simulation time: 00 hr 39 min 01 sec)
*** Reached end of trace: (2, "traces/canneal_big0.champsimtrace")
Heartbeat CPU 2 instructions: 40000012 cycles: 15558218 heartbeat IPC: 2.594 cumulative IPC: 2.571 (Simulation time: 00 hr 39 min 08 sec)
*** Reached end of trace: (3, "traces/canneal_big1.champsimtrace")
*** Reached end of trace: (7, "traces/canneal_big1.champsimtrace")
*** Reached end of trace: (5, "traces/canneal_big3.champsimtrace")
*** Reached end of trace: (1, "traces/canneal_big3.champsimtrace")
*** Reached end of trace: (0, "traces/canneal_big2.champsimtrace")
*** Reached end of trace: (4, "traces/canneal_big2.champsimtrace")
*** Reached end of trace: (6, "traces/canneal_big0.champsimtrace")
*** Reached end of trace: (2, "traces/canneal_big0.champsimtrace")
*** Reached end of trace: (5, "traces/canneal_big3.champsimtrace")
*** Reached end of trace: (1, "traces/canneal_big3.champsimtrace")
Heartbeat CPU 5 instructions: 70000001 cycles: 17503657 heartbeat IPC: 4 cumulative IPC: 3.999 (Simulation time: 00 hr 43 min 48 sec)
Heartbeat CPU 1 instructions: 70000001 cycles: 17503657 heartbeat IPC: 4 cumulative IPC: 3.999 (Simulation time: 00 hr 43 min 48 sec)
*** Reached end of trace: (0, "traces/canneal_big2.champsimtrace")
*** Reached end of trace: (4, "traces/canneal_big2.champsimtrace")
Heartbeat CPU 0 instructions: 70000001 cycles: 17503804 heartbeat IPC: 4 cumulative IPC: 3.999 (Simulation time: 00 hr 43 min 48 sec)
Heartbeat CPU 4 instructions: 70000001 cycles: 17503805 heartbeat IPC: 4 cumulative IPC: 3.999 (Simulation time: 00 hr 43 min 48 sec)
*** Reached end of trace: (3, "traces/canneal_big1.champsimtrace")
Heartbeat CPU 3 instructions: 30000004 cycles: 18678769 heartbeat IPC: 1.757 cumulative IPC: 1.606 (Simulation time: 00 hr 46 min 38 sec)
*** Reached end of trace: (7, "traces/canneal_big1.champsimtrace")
Heartbeat CPU 7 instructions: 30000004 cycles: 18679340 heartbeat IPC: 1.757 cumulative IPC: 1.606 (Simulation time: 00 hr 46 min 38 sec)
*** Reached end of trace: (5, "traces/canneal_big3.champsimtrace")
*** Reached end of trace: (1, "traces/canneal_big3.champsimtrace")
*** Reached end of trace: (0, "traces/canneal_big2.champsimtrace")
*** Reached end of trace: (4, "traces/canneal_big2.champsimtrace")
*** Reached end of trace: (6, "traces/canneal_big0.champsimtrace")
Warmup finished CPU 6 instructions: 50000000 cycles: 19346350 cumulative IPC: 2.584 (Simulation time: 00 hr 48 min 12 sec)
Heartbeat CPU 6 instructions: 50000015 cycles: 19346353 heartbeat IPC: 2.604 cumulative IPC: 2.584 (Simulation time: 00 hr 48 min 12 sec)
*** Reached end of trace: (2, "traces/canneal_big0.champsimtrace")
Warmup finished CPU 2 instructions: 50000000 cycles: 19413466 cumulative IPC: 2.576 (Simulation time: 00 hr 48 min 22 sec)
Heartbeat CPU 2 instructions: 50000015 cycles: 19413469 heartbeat IPC: 2.594 cumulative IPC: 2.576 (Simulation time: 00 hr 48 min 22 sec)
*** Reached end of trace: (5, "traces/canneal_big3.champsimtrace")
*** Reached end of trace: (1, "traces/canneal_big3.champsimtrace")
Heartbeat CPU 5 instructions: 80000001 cycles: 20003657 heartbeat IPC: 4 cumulative IPC: 3.999 (Simulation time: 00 hr 49 min 48 sec)
Heartbeat CPU 1 instructions: 80000001 cycles: 20003657 heartbeat IPC: 4 cumulative IPC: 3.999 (Simulation time: 00 hr 49 min 48 sec)
*** Reached end of trace: (0, "traces/canneal_big2.champsimtrace")
*** Reached end of trace: (4, "traces/canneal_big2.champsimtrace")
Heartbeat CPU 0 instructions: 80000001 cycles: 20003804 heartbeat IPC: 4 cumulative IPC: 3.999 (Simulation time: 00 hr 49 min 48 sec)
Heartbeat CPU 4 instructions: 80000001 cycles: 20003805 heartbeat IPC: 4 cumulative IPC: 3.999 (Simulation time: 00 hr 49 min 48 sec)
*** Reached end of trace: (5, "traces/canneal_big3.champsimtrace")
*** Reached end of trace: (1, "traces/canneal_big3.champsimtrace")
*** Reached end of trace: (0, "traces/canneal_big2.champsimtrace")
*** Reached end of trace: (4, "traces/canneal_big2.champsimtrace")
*** Reached end of trace: (6, "traces/canneal_big0.champsimtrace")
*** Reached end of trace: (2, "traces/canneal_big0.champsimtrace")
*** Reached end of trace: (3, "traces/canneal_big1.champsimtrace")
*** Reached end of trace: (7, "traces/canneal_big1.champsimtrace")
*** Reached end of trace: (5, "traces/canneal_big3.champsimtrace")
*** Reached end of trace: (1, "traces/canneal_big3.champsimtrace")
Heartbeat CPU 5 instructions: 90000001 cycles: 22503657 heartbeat IPC: 4 cumulative IPC: 3.999 (Simulation time: 00 hr 55 min 45 sec)
Heartbeat CPU 1 instructions: 90000001 cycles: 22503657 heartbeat IPC: 4 cumulative IPC: 3.999 (Simulation time: 00 hr 55 min 45 sec)
*** Reached end of trace: (0, "traces/canneal_big2.champsimtrace")
*** Reached end of trace: (4, "traces/canneal_big2.champsimtrace")
Heartbeat CPU 0 instructions: 90000001 cycles: 22503804 heartbeat IPC: 4 cumulative IPC: 3.999 (Simulation time: 00 hr 55 min 45 sec)
Heartbeat CPU 4 instructions: 90000001 cycles: 22503805 heartbeat IPC: 4 cumulative IPC: 3.999 (Simulation time: 00 hr 55 min 45 sec)
*** Reached end of trace: (6, "traces/canneal_big0.champsimtrace")
Heartbeat CPU 6 instructions: 60000018 cycles: 23186449 heartbeat IPC: 2.604 cumulative IPC: 2.588 (Simulation time: 00 hr 57 min 21 sec)
*** Reached end of trace: (2, "traces/canneal_big0.champsimtrace")
Heartbeat CPU 2 instructions: 60000018 cycles: 23268830 heartbeat IPC: 2.594 cumulative IPC: 2.579 (Simulation time: 00 hr 57 min 33 sec)
*** Reached end of trace: (5, "traces/canneal_big3.champsimtrace")
*** Reached end of trace: (1, "traces/canneal_big3.champsimtrace")
*** Reached end of trace: (0, "traces/canneal_big2.champsimtrace")
*** Reached end of trace: (4, "traces/canneal_big2.champsimtrace")
*** Reached end of trace: (3, "traces/canneal_big1.champsimtrace")
Heartbeat CPU 3 instructions: 40000006 cycles: 24368566 heartbeat IPC: 1.758 cumulative IPC: 1.641 (Simulation time: 01 hr 00 min 11 sec)
*** Reached end of trace: (7, "traces/canneal_big1.champsimtrace")
Heartbeat CPU 7 instructions: 40000006 cycles: 24369929 heartbeat IPC: 1.757 cumulative IPC: 1.641 (Simulation time: 01 hr 00 min 11 sec)
*** Reached end of trace: (5, "traces/canneal_big3.champsimtrace")
*** Reached end of trace: (1, "traces/canneal_big3.champsimtrace")
Heartbeat CPU 5 instructions: 100000001 cycles: 25003657 heartbeat IPC: 4 cumulative IPC: 3.999 (Simulation time: 01 hr 01 min 40 sec)
Heartbeat CPU 1 instructions: 100000001 cycles: 25003657 heartbeat IPC: 4 cumulative IPC: 3.999 (Simulation time: 01 hr 01 min 40 sec)
*** Reached end of trace: (0, "traces/canneal_big2.champsimtrace")
*** Reached end of trace: (4, "traces/canneal_big2.champsimtrace")
Heartbeat CPU 0 instructions: 100000001 cycles: 25003804 heartbeat IPC: 4 cumulative IPC: 3.999 (Simulation time: 01 hr 01 min 40 sec)
Heartbeat CPU 4 instructions: 100000001 cycles: 25003805 heartbeat IPC: 4 cumulative IPC: 3.999 (Simulation time: 01 hr 01 min 40 sec)
*** Reached end of trace: (6, "traces/canneal_big0.champsimtrace")
*** Reached end of trace: (2, "traces/canneal_big0.champsimtrace")
*** Reached end of trace: (5, "traces/canneal_big3.champsimtrace")
*** Reached end of trace: (1, "traces/canneal_big3.champsimtrace")
*** Reached end of trace: (0, "traces/canneal_big2.champsimtrace")
*** Reached end of trace: (4, "traces/canneal_big2.champsimtrace")
*** Reached end of trace: (6, "traces/canneal_big0.champsimtrace")
Heartbeat CPU 6 instructions: 70000021 cycles: 27026630 heartbeat IPC: 2.604 cumulative IPC: 2.59 (Simulation time: 01 hr 06 min 29 sec)
*** Reached end of trace: (2, "traces/canneal_big0.champsimtrace")
Heartbeat CPU 2 instructions: 70000021 cycles: 27124386 heartbeat IPC: 2.594 cumulative IPC: 2.581 (Simulation time: 01 hr 06 min 43 sec)
*** Reached end of trace: (3, "traces/canneal_big1.champsimtrace")
*** Reached end of trace: (7, "traces/canneal_big1.champsimtrace")
*** Reached end of trace: (5, "traces/canneal_big3.champsimtrace")
*** Reached end of trace: (1, "traces/canneal_big3.champsimtrace")
Heartbeat CPU 5 instructions: 110000001 cycles: 27503657 heartbeat IPC: 4 cumulative IPC: 3.999 (Simulation time: 01 hr 07 min 39 sec)
Heartbeat CPU 1 instructions: 110000001 cycles: 27503657 heartbeat IPC: 4 cumulative IPC: 3.999 (Simulation time: 01 hr 07 min 39 sec)
*** Reached end of trace: (0, "traces/canneal_big2.champsimtrace")
*** Reached end of trace: (4, "traces/canneal_big2.champsimtrace")
Heartbeat CPU 0 instructions: 110000001 cycles: 27503804 heartbeat IPC: 4 cumulative IPC: 3.999 (Simulation time: 01 hr 07 min 39 sec)
Heartbeat CPU 4 instructions: 110000001 cycles: 27503805 heartbeat IPC: 4 cumulative IPC: 3.999 (Simulation time: 01 hr 07 min 39 sec)
*** Reached end of trace: (5, "traces/canneal_big3.champsimtrace")
*** Reached end of trace: (1, "traces/canneal_big3.champsimtrace")
*** Reached end of trace: (0, "traces/canneal_big2.champsimtrace")
*** Reached end of trace: (4, "traces/canneal_big2.champsimtrace")
*** Reached end of trace: (6, "traces/canneal_big0.champsimtrace")
*** Reached end of trace: (2, "traces/canneal_big0.champsimtrace")
*** Reached end of trace: (5, "traces/canneal_big3.champsimtrace")
*** Reached end of trace: (1, "traces/canneal_big3.champsimtrace")
Heartbeat CPU 5 instructions: 120000001 cycles: 30003657 heartbeat IPC: 4 cumulative IPC: 4 (Simulation time: 01 hr 13 min 29 sec)
Heartbeat CPU 1 instructions: 120000001 cycles: 30003657 heartbeat IPC: 4 cumulative IPC: 4 (Simulation time: 01 hr 13 min 29 sec)
*** Reached end of trace: (0, "traces/canneal_big2.champsimtrace")
*** Reached end of trace: (4, "traces/canneal_big2.champsimtrace")
Heartbeat CPU 0 instructions: 120000001 cycles: 30003804 heartbeat IPC: 4 cumulative IPC: 3.999 (Simulation time: 01 hr 13 min 29 sec)
Heartbeat CPU 4 instructions: 120000001 cycles: 30003805 heartbeat IPC: 4 cumulative IPC: 3.999 (Simulation time: 01 hr 13 min 29 sec)
*** Reached end of trace: (3, "traces/canneal_big1.champsimtrace")
Warmup finished CPU 3 instructions: 50000000 cycles: 30057569 cumulative IPC: 1.663 (Simulation time: 01 hr 13 min 37 sec)
Heartbeat CPU 3 instructions: 50000008 cycles: 30057592 heartbeat IPC: 1.758 cumulative IPC: 1.663 (Simulation time: 01 hr 13 min 37 sec)
*** Reached end of trace: (7, "traces/canneal_big1.champsimtrace")
Warmup finished CPU 7 instructions: 50000000 cycles: 30061045 cumulative IPC: 1.663 (Simulation time: 01 hr 13 min 38 sec)
Warmup complete CPU 7 instructions: 50000000 cycles: 30061045 cumulative IPC: 1.663 (Simulation time: 01 hr 13 min 38 sec)
Warmup complete CPU 6 instructions: 78048729 cycles: 30061045 cumulative IPC: 2.596 (Simulation time: 01 hr 13 min 38 sec)
Warmup complete CPU 5 instructions: 120229553 cycles: 30061045 cumulative IPC: 4 (Simulation time: 01 hr 13 min 38 sec)
Warmup complete CPU 4 instructions: 120228961 cycles: 30061045 cumulative IPC: 3.999 (Simulation time: 01 hr 13 min 38 sec)
Warmup complete CPU 3 instructions: 50006225 cycles: 30061045 cumulative IPC: 1.663 (Simulation time: 01 hr 13 min 38 sec)
Warmup complete CPU 2 instructions: 77784584 cycles: 30061045 cumulative IPC: 2.588 (Simulation time: 01 hr 13 min 38 sec)
Warmup complete CPU 1 instructions: 120229553 cycles: 30061045 cumulative IPC: 4 (Simulation time: 01 hr 13 min 38 sec)
Warmup complete CPU 0 instructions: 120228965 cycles: 30061045 cumulative IPC: 3.999 (Simulation time: 01 hr 13 min 38 sec)
Heartbeat CPU 7 instructions: 50000008 cycles: 30061252 heartbeat IPC: 1.757 cumulative IPC: 0.03865 (Simulation time: 01 hr 13 min 38 sec)
*** Reached end of trace: (6, "traces/canneal_big0.champsimtrace")
Heartbeat CPU 6 instructions: 80000024 cycles: 30913298 heartbeat IPC: 2.573 cumulative IPC: 2.29 (Simulation time: 01 hr 15 min 36 sec)
*** Reached end of trace: (2, "traces/canneal_big0.champsimtrace")
Heartbeat CPU 2 instructions: 80000024 cycles: 31016966 heartbeat IPC: 2.569 cumulative IPC: 2.318 (Simulation time: 01 hr 15 min 51 sec)
*** Reached end of trace: (5, "traces/canneal_big3.champsimtrace")
*** Reached end of trace: (1, "traces/canneal_big3.champsimtrace")
*** Reached end of trace: (0, "traces/canneal_big2.champsimtrace")
*** Reached end of trace: (4, "traces/canneal_big2.champsimtrace")
*** Reached end of trace: (5, "traces/canneal_big3.champsimtrace")
*** Reached end of trace: (1, "traces/canneal_big3.champsimtrace")
Heartbeat CPU 5 instructions: 130000001 cycles: 32503657 heartbeat IPC: 4 cumulative IPC: 4 (Simulation time: 01 hr 19 min 16 sec)
Heartbeat CPU 1 instructions: 130000001 cycles: 32503657 heartbeat IPC: 4 cumulative IPC: 4 (Simulation time: 01 hr 19 min 16 sec)
*** Reached end of trace: (0, "traces/canneal_big2.champsimtrace")
*** Reached end of trace: (4, "traces/canneal_big2.champsimtrace")
Heartbeat CPU 0 instructions: 130000001 cycles: 32503804 heartbeat IPC: 4 cumulative IPC: 4 (Simulation time: 01 hr 19 min 16 sec)
Heartbeat CPU 4 instructions: 130000001 cycles: 32503805 heartbeat IPC: 4 cumulative IPC: 4 (Simulation time: 01 hr 19 min 16 sec)
*** Reached end of trace: (6, "traces/canneal_big0.champsimtrace")
*** Reached end of trace: (2, "traces/canneal_big0.champsimtrace")
*** Reached end of trace: (5, "traces/canneal_big3.champsimtrace")
*** Reached end of trace: (1, "traces/canneal_big3.champsimtrace")
*** Reached end of trace: (0, "traces/canneal_big2.champsimtrace")
*** Reached end of trace: (4, "traces/canneal_big2.champsimtrace")
*** Reached end of trace: (5, "traces/canneal_big3.champsimtrace")
*** Reached end of trace: (1, "traces/canneal_big3.champsimtrace")
Heartbeat CPU 5 instructions: 140000001 cycles: 35003657 heartbeat IPC: 4 cumulative IPC: 4 (Simulation time: 01 hr 25 min 07 sec)
Heartbeat CPU 1 instructions: 140000001 cycles: 35003657 heartbeat IPC: 4 cumulative IPC: 4 (Simulation time: 01 hr 25 min 07 sec)
*** Reached end of trace: (0, "traces/canneal_big2.champsimtrace")
*** Reached end of trace: (4, "traces/canneal_big2.champsimtrace")
Heartbeat CPU 0 instructions: 140000001 cycles: 35003804 heartbeat IPC: 4 cumulative IPC: 4 (Simulation time: 01 hr 25 min 07 sec)
Heartbeat CPU 4 instructions: 140000001 cycles: 35003805 heartbeat IPC: 4 cumulative IPC: 4 (Simulation time: 01 hr 25 min 07 sec)
*** Reached end of trace: (6, "traces/canneal_big0.champsimtrace")
Heartbeat CPU 6 instructions: 90000027 cycles: 35430409 heartbeat IPC: 2.214 cumulative IPC: 2.226 (Simulation time: 01 hr 26 min 05 sec)
*** Reached end of trace: (2, "traces/canneal_big0.champsimtrace")
Heartbeat CPU 2 instructions: 90000027 cycles: 35462937 heartbeat IPC: 2.249 cumulative IPC: 2.261 (Simulation time: 01 hr 26 min 10 sec)
*** Reached end of trace: (5, "traces/canneal_big3.champsimtrace")
*** Reached end of trace: (1, "traces/canneal_big3.champsimtrace")
*** Reached end of trace: (0, "traces/canneal_big2.champsimtrace")
*** Reached end of trace: (4, "traces/canneal_big2.champsimtrace")
*** Reached end of trace: (5, "traces/canneal_big3.champsimtrace")
*** Reached end of trace: (1, "traces/canneal_big3.champsimtrace")
Heartbeat CPU 5 instructions: 150000001 cycles: 37503657 heartbeat IPC: 4 cumulative IPC: 4 (Simulation time: 01 hr 30 min 50 sec)
Heartbeat CPU 1 instructions: 150000001 cycles: 37503657 heartbeat IPC: 4 cumulative IPC: 4 (Simulation time: 01 hr 30 min 50 sec)
*** Reached end of trace: (0, "traces/canneal_big2.champsimtrace")
*** Reached end of trace: (4, "traces/canneal_big2.champsimtrace")
Heartbeat CPU 0 instructions: 150000001 cycles: 37503804 heartbeat IPC: 4 cumulative IPC: 4 (Simulation time: 01 hr 30 min 50 sec)
Heartbeat CPU 4 instructions: 150000001 cycles: 37503805 heartbeat IPC: 4 cumulative IPC: 4 (Simulation time: 01 hr 30 min 50 sec)
*** Reached end of trace: (6, "traces/canneal_big0.champsimtrace")
*** Reached end of trace: (2, "traces/canneal_big0.champsimtrace")
*** Reached end of trace: (5, "traces/canneal_big3.champsimtrace")
*** Reached end of trace: (1, "traces/canneal_big3.champsimtrace")
*** Reached end of trace: (0, "traces/canneal_big2.champsimtrace")
*** Reached end of trace: (4, "traces/canneal_big2.champsimtrace")
*** Reached end of trace: (6, "traces/canneal_big0.champsimtrace")
Heartbeat CPU 6 instructions: 100000030 cycles: 39684305 heartbeat IPC: 2.351 cumulative IPC: 2.281 (Simulation time: 01 hr 35 min 50 sec)
*** Reached end of trace: (2, "traces/canneal_big0.champsimtrace")
Heartbeat CPU 2 instructions: 100000030 cycles: 39717917 heartbeat IPC: 2.35 cumulative IPC: 2.3 (Simulation time: 01 hr 35 min 55 sec)
*** Reached end of trace: (5, "traces/canneal_big3.champsimtrace")
*** Reached end of trace: (1, "traces/canneal_big3.champsimtrace")
Heartbeat CPU 5 instructions: 160000001 cycles: 40003657 heartbeat IPC: 4 cumulative IPC: 4 (Simulation time: 01 hr 36 min 36 sec)
Heartbeat CPU 1 instructions: 160000001 cycles: 40003657 heartbeat IPC: 4 cumulative IPC: 4 (Simulation time: 01 hr 36 min 36 sec)
*** Reached end of trace: (0, "traces/canneal_big2.champsimtrace")
*** Reached end of trace: (4, "traces/canneal_big2.champsimtrace")
Heartbeat CPU 0 instructions: 160000001 cycles: 40003804 heartbeat IPC: 4 cumulative IPC: 4 (Simulation time: 01 hr 36 min 36 sec)
Heartbeat CPU 4 instructions: 160000001 cycles: 40003805 heartbeat IPC: 4 cumulative IPC: 4 (Simulation time: 01 hr 36 min 36 sec)
*** Reached end of trace: (5, "traces/canneal_big3.champsimtrace")
*** Reached end of trace: (1, "traces/canneal_big3.champsimtrace")
*** Reached end of trace: (0, "traces/canneal_big2.champsimtrace")
*** Reached end of trace: (4, "traces/canneal_big2.champsimtrace")
*** Reached end of trace: (6, "traces/canneal_big0.champsimtrace")
*** Reached end of trace: (2, "traces/canneal_big0.champsimtrace")
*** Reached end of trace: (5, "traces/canneal_big3.champsimtrace")
*** Reached end of trace: (1, "traces/canneal_big3.champsimtrace")
Heartbeat CPU 5 instructions: 170000001 cycles: 42503657 heartbeat IPC: 4 cumulative IPC: 4 (Simulation time: 01 hr 42 min 23 sec)
Heartbeat CPU 1 instructions: 170000001 cycles: 42503657 heartbeat IPC: 4 cumulative IPC: 4 (Simulation time: 01 hr 42 min 23 sec)
*** Reached end of trace: (0, "traces/canneal_big2.champsimtrace")
*** Reached end of trace: (4, "traces/canneal_big2.champsimtrace")
Heartbeat CPU 0 instructions: 170000001 cycles: 42503804 heartbeat IPC: 4 cumulative IPC: 4 (Simulation time: 01 hr 42 min 23 sec)
Heartbeat CPU 4 instructions: 170000001 cycles: 42503805 heartbeat IPC: 4 cumulative IPC: 4 (Simulation time: 01 hr 42 min 23 sec)
*** Reached end of trace: (5, "traces/canneal_big3.champsimtrace")
*** Reached end of trace: (1, "traces/canneal_big3.champsimtrace")
*** Reached end of trace: (0, "traces/canneal_big2.champsimtrace")
*** Reached end of trace: (4, "traces/canneal_big2.champsimtrace")
*** Reached end of trace: (6, "traces/canneal_big0.champsimtrace")
Heartbeat CPU 6 instructions: 110000033 cycles: 43887356 heartbeat IPC: 2.379 cumulative IPC: 2.311 (Simulation time: 01 hr 45 min 36 sec)
*** Reached end of trace: (2, "traces/canneal_big0.champsimtrace")
Heartbeat CPU 2 instructions: 110000033 cycles: 43920903 heartbeat IPC: 2.379 cumulative IPC: 2.324 (Simulation time: 01 hr 45 min 41 sec)
*** Reached end of trace: (7, "traces/canneal_big1.champsimtrace")
*** Reached end of trace: (3, "traces/canneal_big1.champsimtrace")
*** Reached end of trace: (5, "traces/canneal_big3.champsimtrace")
*** Reached end of trace: (1, "traces/canneal_big3.champsimtrace")
Heartbeat CPU 5 instructions: 180000001 cycles: 45003657 heartbeat IPC: 4 cumulative IPC: 4 (Simulation time: 01 hr 48 min 11 sec)
Heartbeat CPU 1 instructions: 180000001 cycles: 45003657 heartbeat IPC: 4 cumulative IPC: 4 (Simulation time: 01 hr 48 min 11 sec)
*** Reached end of trace: (0, "traces/canneal_big2.champsimtrace")
*** Reached end of trace: (4, "traces/canneal_big2.champsimtrace")
Heartbeat CPU 0 instructions: 180000001 cycles: 45003804 heartbeat IPC: 4 cumulative IPC: 4 (Simulation time: 01 hr 48 min 11 sec)
Heartbeat CPU 4 instructions: 180000001 cycles: 45003805 heartbeat IPC: 4 cumulative IPC: 4 (Simulation time: 01 hr 48 min 11 sec)
*** Reached end of trace: (6, "traces/canneal_big0.champsimtrace")
*** Reached end of trace: (2, "traces/canneal_big0.champsimtrace")
*** Reached end of trace: (5, "traces/canneal_big3.champsimtrace")
*** Reached end of trace: (1, "traces/canneal_big3.champsimtrace")
*** Reached end of trace: (0, "traces/canneal_big2.champsimtrace")
*** Reached end of trace: (4, "traces/canneal_big2.champsimtrace")
*** Reached end of trace: (5, "traces/canneal_big3.champsimtrace")
*** Reached end of trace: (1, "traces/canneal_big3.champsimtrace")
Heartbeat CPU 5 instructions: 190000001 cycles: 47503657 heartbeat IPC: 4 cumulative IPC: 4 (Simulation time: 01 hr 54 min 01 sec)
Heartbeat CPU 1 instructions: 190000001 cycles: 47503657 heartbeat IPC: 4 cumulative IPC: 4 (Simulation time: 01 hr 54 min 01 sec)
*** Reached end of trace: (0, "traces/canneal_big2.champsimtrace")
*** Reached end of trace: (4, "traces/canneal_big2.champsimtrace")
Heartbeat CPU 0 instructions: 190000001 cycles: 47503804 heartbeat IPC: 4 cumulative IPC: 4 (Simulation time: 01 hr 54 min 02 sec)
Heartbeat CPU 4 instructions: 190000001 cycles: 47503805 heartbeat IPC: 4 cumulative IPC: 4 (Simulation time: 01 hr 54 min 02 sec)
*** Reached end of trace: (6, "traces/canneal_big0.champsimtrace")
Heartbeat CPU 6 instructions: 120000036 cycles: 48071142 heartbeat IPC: 2.39 cumulative IPC: 2.329 (Simulation time: 01 hr 55 min 21 sec)
*** Reached end of trace: (2, "traces/canneal_big0.champsimtrace")
Heartbeat CPU 2 instructions: 120000036 cycles: 48104759 heartbeat IPC: 2.39 cumulative IPC: 2.34 (Simulation time: 01 hr 55 min 26 sec)
*** Reached end of trace: (5, "traces/canneal_big3.champsimtrace")
*** Reached end of trace: (1, "traces/canneal_big3.champsimtrace")
*** Reached end of trace: (0, "traces/canneal_big2.champsimtrace")
*** Reached end of trace: (4, "traces/canneal_big2.champsimtrace")
*** Reached end of trace: (5, "traces/canneal_big3.champsimtrace")
*** Reached end of trace: (1, "traces/canneal_big3.champsimtrace")
Heartbeat CPU 5 instructions: 200000001 cycles: 50003657 heartbeat IPC: 4 cumulative IPC: 4 (Simulation time: 01 hr 59 min 52 sec)
Heartbeat CPU 1 instructions: 200000001 cycles: 50003657 heartbeat IPC: 4 cumulative IPC: 4 (Simulation time: 01 hr 59 min 52 sec)
*** Reached end of trace: (0, "traces/canneal_big2.champsimtrace")
*** Reached end of trace: (4, "traces/canneal_big2.champsimtrace")
Heartbeat CPU 0 instructions: 200000001 cycles: 50003804 heartbeat IPC: 4 cumulative IPC: 4 (Simulation time: 01 hr 59 min 52 sec)
Heartbeat CPU 4 instructions: 200000001 cycles: 50003805 heartbeat IPC: 4 cumulative IPC: 4 (Simulation time: 01 hr 59 min 52 sec)
*** Reached end of trace: (6, "traces/canneal_big0.champsimtrace")
*** Reached end of trace: (2, "traces/canneal_big0.champsimtrace")
*** Reached end of trace: (5, "traces/canneal_big3.champsimtrace")
*** Reached end of trace: (1, "traces/canneal_big3.champsimtrace")
*** Reached end of trace: (0, "traces/canneal_big2.champsimtrace")
*** Reached end of trace: (4, "traces/canneal_big2.champsimtrace")
*** Reached end of trace: (6, "traces/canneal_big0.champsimtrace")
Heartbeat CPU 6 instructions: 130000039 cycles: 52254863 heartbeat IPC: 2.39 cumulative IPC: 2.341 (Simulation time: 02 hr 05 min 03 sec)
*** Reached end of trace: (2, "traces/canneal_big0.champsimtrace")
Heartbeat CPU 2 instructions: 130000039 cycles: 52288750 heartbeat IPC: 2.39 cumulative IPC: 2.349 (Simulation time: 02 hr 05 min 08 sec)
*** Reached end of trace: (5, "traces/canneal_big3.champsimtrace")
*** Reached end of trace: (1, "traces/canneal_big3.champsimtrace")
Heartbeat CPU 5 instructions: 210000001 cycles: 52503657 heartbeat IPC: 4 cumulative IPC: 4 (Simulation time: 02 hr 05 min 39 sec)
Heartbeat CPU 1 instructions: 210000001 cycles: 52503657 heartbeat IPC: 4 cumulative IPC: 4 (Simulation time: 02 hr 05 min 39 sec)
*** Reached end of trace: (0, "traces/canneal_big2.champsimtrace")
*** Reached end of trace: (4, "traces/canneal_big2.champsimtrace")
Heartbeat CPU 0 instructions: 210000001 cycles: 52503804 heartbeat IPC: 4 cumulative IPC: 4 (Simulation time: 02 hr 05 min 39 sec)
Heartbeat CPU 4 instructions: 210000001 cycles: 52503805 heartbeat IPC: 4 cumulative IPC: 4 (Simulation time: 02 hr 05 min 39 sec)
*** Reached end of trace: (5, "traces/canneal_big3.champsimtrace")
*** Reached end of trace: (1, "traces/canneal_big3.champsimtrace")
*** Reached end of trace: (0, "traces/canneal_big2.champsimtrace")
*** Reached end of trace: (4, "traces/canneal_big2.champsimtrace")
*** Reached end of trace: (6, "traces/canneal_big0.champsimtrace")
*** Reached end of trace: (2, "traces/canneal_big0.champsimtrace")
*** Reached end of trace: (5, "traces/canneal_big3.champsimtrace")
*** Reached end of trace: (1, "traces/canneal_big3.champsimtrace")
Heartbeat CPU 5 instructions: 220000001 cycles: 55003657 heartbeat IPC: 4 cumulative IPC: 4 (Simulation time: 02 hr 11 min 26 sec)
Heartbeat CPU 1 instructions: 220000001 cycles: 55003657 heartbeat IPC: 4 cumulative IPC: 4 (Simulation time: 02 hr 11 min 26 sec)
*** Reached end of trace: (0, "traces/canneal_big2.champsimtrace")
*** Reached end of trace: (4, "traces/canneal_big2.champsimtrace")
Heartbeat CPU 0 instructions: 220000001 cycles: 55003804 heartbeat IPC: 4 cumulative IPC: 4 (Simulation time: 02 hr 11 min 26 sec)
Heartbeat CPU 4 instructions: 220000001 cycles: 55003805 heartbeat IPC: 4 cumulative IPC: 4 (Simulation time: 02 hr 11 min 26 sec)
Simulation finished CPU 5 instructions: 100000000 cycles: 25000000 cumulative IPC: 4 (Simulation time: 02 hr 11 min 33 sec)
Simulation finished CPU 4 instructions: 100000000 cycles: 25000000 cumulative IPC: 4 (Simulation time: 02 hr 11 min 33 sec)
Simulation finished CPU 1 instructions: 100000000 cycles: 25000000 cumulative IPC: 4 (Simulation time: 02 hr 11 min 33 sec)
Simulation finished CPU 0 instructions: 100000000 cycles: 25000000 cumulative IPC: 4 (Simulation time: 02 hr 11 min 33 sec)
*** Reached end of trace: (5, "traces/canneal_big3.champsimtrace")
*** Reached end of trace: (1, "traces/canneal_big3.champsimtrace")
*** Reached end of trace: (0, "traces/canneal_big2.champsimtrace")
*** Reached end of trace: (4, "traces/canneal_big2.champsimtrace")
*** Reached end of trace: (6, "traces/canneal_big0.champsimtrace")
Heartbeat CPU 6 instructions: 140000042 cycles: 56436039 heartbeat IPC: 2.392 cumulative IPC: 2.349 (Simulation time: 02 hr 14 min 45 sec)
*** Reached end of trace: (2, "traces/canneal_big0.champsimtrace")
Heartbeat CPU 2 instructions: 140000042 cycles: 56469816 heartbeat IPC: 2.392 cumulative IPC: 2.356 (Simulation time: 02 hr 14 min 50 sec)
*** Reached end of trace: (5, "traces/canneal_big3.champsimtrace")
*** Reached end of trace: (1, "traces/canneal_big3.champsimtrace")
Heartbeat CPU 5 instructions: 230000001 cycles: 57503657 heartbeat IPC: 4 cumulative IPC: 4 (Simulation time: 02 hr 17 min 14 sec)
Heartbeat CPU 1 instructions: 230000001 cycles: 57503657 heartbeat IPC: 4 cumulative IPC: 4 (Simulation time: 02 hr 17 min 14 sec)
*** Reached end of trace: (0, "traces/canneal_big2.champsimtrace")
*** Reached end of trace: (4, "traces/canneal_big2.champsimtrace")
Heartbeat CPU 0 instructions: 230000001 cycles: 57503804 heartbeat IPC: 4 cumulative IPC: 4 (Simulation time: 02 hr 17 min 15 sec)
Heartbeat CPU 4 instructions: 230000001 cycles: 57503805 heartbeat IPC: 4 cumulative IPC: 4 (Simulation time: 02 hr 17 min 15 sec)
*** Reached end of trace: (6, "traces/canneal_big0.champsimtrace")
*** Reached end of trace: (2, "traces/canneal_big0.champsimtrace")
*** Reached end of trace: (5, "traces/canneal_big3.champsimtrace")
*** Reached end of trace: (1, "traces/canneal_big3.champsimtrace")
*** Reached end of trace: (0, "traces/canneal_big2.champsimtrace")
*** Reached end of trace: (4, "traces/canneal_big2.champsimtrace")
*** Reached end of trace: (7, "traces/canneal_big1.champsimtrace")
*** Reached end of trace: (3, "traces/canneal_big1.champsimtrace")
Heartbeat CPU 7 instructions: 60000010 cycles: 59076819 heartbeat IPC: 0.3446 cumulative IPC: 0.3446 (Simulation time: 02 hr 20 min 56 sec)
Heartbeat CPU 3 instructions: 60000010 cycles: 59076821 heartbeat IPC: 0.3446 cumulative IPC: 0.3444 (Simulation time: 02 hr 20 min 56 sec)
*** Reached end of trace: (5, "traces/canneal_big3.champsimtrace")
*** Reached end of trace: (1, "traces/canneal_big3.champsimtrace")
Heartbeat CPU 5 instructions: 240000001 cycles: 60003657 heartbeat IPC: 4 cumulative IPC: 4 (Simulation time: 02 hr 23 min 03 sec)
Heartbeat CPU 1 instructions: 240000001 cycles: 60003657 heartbeat IPC: 4 cumulative IPC: 4 (Simulation time: 02 hr 23 min 03 sec)
*** Reached end of trace: (0, "traces/canneal_big2.champsimtrace")
*** Reached end of trace: (4, "traces/canneal_big2.champsimtrace")
Heartbeat CPU 0 instructions: 240000001 cycles: 60003804 heartbeat IPC: 4 cumulative IPC: 4 (Simulation time: 02 hr 23 min 03 sec)
Heartbeat CPU 4 instructions: 240000001 cycles: 60003805 heartbeat IPC: 4 cumulative IPC: 4 (Simulation time: 02 hr 23 min 03 sec)
*** Reached end of trace: (6, "traces/canneal_big0.champsimtrace")
Heartbeat CPU 6 instructions: 150000045 cycles: 60611134 heartbeat IPC: 2.395 cumulative IPC: 2.355 (Simulation time: 02 hr 24 min 27 sec)
*** Reached end of trace: (2, "traces/canneal_big0.champsimtrace")
Heartbeat CPU 2 instructions: 150000045 cycles: 60644666 heartbeat IPC: 2.395 cumulative IPC: 2.361 (Simulation time: 02 hr 24 min 32 sec)
*** Reached end of trace: (5, "traces/canneal_big3.champsimtrace")
*** Reached end of trace: (1, "traces/canneal_big3.champsimtrace")
*** Reached end of trace: (0, "traces/canneal_big2.champsimtrace")
*** Reached end of trace: (4, "traces/canneal_big2.champsimtrace")
*** Reached end of trace: (5, "traces/canneal_big3.champsimtrace")
*** Reached end of trace: (1, "traces/canneal_big3.champsimtrace")
Heartbeat CPU 5 instructions: 250000001 cycles: 62503657 heartbeat IPC: 4 cumulative IPC: 4 (Simulation time: 02 hr 28 min 50 sec)
Heartbeat CPU 1 instructions: 250000001 cycles: 62503657 heartbeat IPC: 4 cumulative IPC: 4 (Simulation time: 02 hr 28 min 50 sec)
*** Reached end of trace: (0, "traces/canneal_big2.champsimtrace")
*** Reached end of trace: (4, "traces/canneal_big2.champsimtrace")
Heartbeat CPU 0 instructions: 250000001 cycles: 62503804 heartbeat IPC: 4 cumulative IPC: 4 (Simulation time: 02 hr 28 min 50 sec)
Heartbeat CPU 4 instructions: 250000001 cycles: 62503805 heartbeat IPC: 4 cumulative IPC: 4 (Simulation time: 02 hr 28 min 50 sec)
*** Reached end of trace: (6, "traces/canneal_big0.champsimtrace")
*** Reached end of trace: (2, "traces/canneal_big0.champsimtrace")
*** Reached end of trace: (5, "traces/canneal_big3.champsimtrace")
*** Reached end of trace: (1, "traces/canneal_big3.champsimtrace")
*** Reached end of trace: (0, "traces/canneal_big2.champsimtrace")
*** Reached end of trace: (4, "traces/canneal_big2.champsimtrace")
*** Reached end of trace: (6, "traces/canneal_big0.champsimtrace")
Heartbeat CPU 6 instructions: 160000048 cycles: 64790370 heartbeat IPC: 2.393 cumulative IPC: 2.36 (Simulation time: 02 hr 34 min 07 sec)
*** Reached end of trace: (2, "traces/canneal_big0.champsimtrace")
Heartbeat CPU 2 instructions: 160000048 cycles: 64824098 heartbeat IPC: 2.393 cumulative IPC: 2.365 (Simulation time: 02 hr 34 min 12 sec)
*** Reached end of trace: (5, "traces/canneal_big3.champsimtrace")
*** Reached end of trace: (1, "traces/canneal_big3.champsimtrace")
Heartbeat CPU 5 instructions: 260000001 cycles: 65003657 heartbeat IPC: 4 cumulative IPC: 4 (Simulation time: 02 hr 34 min 37 sec)
Heartbeat CPU 1 instructions: 260000001 cycles: 65003657 heartbeat IPC: 4 cumulative IPC: 4 (Simulation time: 02 hr 34 min 37 sec)
*** Reached end of trace: (0, "traces/canneal_big2.champsimtrace")
*** Reached end of trace: (4, "traces/canneal_big2.champsimtrace")
Heartbeat CPU 0 instructions: 260000001 cycles: 65003804 heartbeat IPC: 4 cumulative IPC: 4 (Simulation time: 02 hr 34 min 37 sec)
Heartbeat CPU 4 instructions: 260000001 cycles: 65003805 heartbeat IPC: 4 cumulative IPC: 4 (Simulation time: 02 hr 34 min 37 sec)
*** Reached end of trace: (5, "traces/canneal_big3.champsimtrace")
*** Reached end of trace: (1, "traces/canneal_big3.champsimtrace")
*** Reached end of trace: (0, "traces/canneal_big2.champsimtrace")
*** Reached end of trace: (4, "traces/canneal_big2.champsimtrace")
*** Reached end of trace: (6, "traces/canneal_big0.champsimtrace")
*** Reached end of trace: (2, "traces/canneal_big0.champsimtrace")
*** Reached end of trace: (5, "traces/canneal_big3.champsimtrace")
*** Reached end of trace: (1, "traces/canneal_big3.champsimtrace")
Heartbeat CPU 5 instructions: 270000001 cycles: 67503657 heartbeat IPC: 4 cumulative IPC: 4 (Simulation time: 02 hr 40 min 24 sec)
Heartbeat CPU 1 instructions: 270000001 cycles: 67503657 heartbeat IPC: 4 cumulative IPC: 4 (Simulation time: 02 hr 40 min 24 sec)
*** Reached end of trace: (0, "traces/canneal_big2.champsimtrace")
*** Reached end of trace: (4, "traces/canneal_big2.champsimtrace")
Heartbeat CPU 0 instructions: 270000001 cycles: 67503804 heartbeat IPC: 4 cumulative IPC: 4 (Simulation time: 02 hr 40 min 24 sec)
Heartbeat CPU 4 instructions: 270000001 cycles: 67503805 heartbeat IPC: 4 cumulative IPC: 4 (Simulation time: 02 hr 40 min 24 sec)
*** Reached end of trace: (5, "traces/canneal_big3.champsimtrace")
*** Reached end of trace: (1, "traces/canneal_big3.champsimtrace")
*** Reached end of trace: (0, "traces/canneal_big2.champsimtrace")
*** Reached end of trace: (4, "traces/canneal_big2.champsimtrace")
*** Reached end of trace: (6, "traces/canneal_big0.champsimtrace")
Heartbeat CPU 6 instructions: 170000051 cycles: 68962512 heartbeat IPC: 2.397 cumulative IPC: 2.364 (Simulation time: 02 hr 43 min 46 sec)
*** Reached end of trace: (2, "traces/canneal_big0.champsimtrace")
Heartbeat CPU 2 instructions: 170000051 cycles: 68996099 heartbeat IPC: 2.397 cumulative IPC: 2.368 (Simulation time: 02 hr 43 min 51 sec)
*** Reached end of trace: (5, "traces/canneal_big3.champsimtrace")
*** Reached end of trace: (1, "traces/canneal_big3.champsimtrace")
Heartbeat CPU 5 instructions: 280000001 cycles: 70003657 heartbeat IPC: 4 cumulative IPC: 4 (Simulation time: 02 hr 46 min 10 sec)
Heartbeat CPU 1 instructions: 280000001 cycles: 70003657 heartbeat IPC: 4 cumulative IPC: 4 (Simulation time: 02 hr 46 min 10 sec)
*** Reached end of trace: (0, "traces/canneal_big2.champsimtrace")
*** Reached end of trace: (4, "traces/canneal_big2.champsimtrace")
Heartbeat CPU 0 instructions: 280000001 cycles: 70003804 heartbeat IPC: 4 cumulative IPC: 4 (Simulation time: 02 hr 46 min 10 sec)
Heartbeat CPU 4 instructions: 280000001 cycles: 70003805 heartbeat IPC: 4 cumulative IPC: 4 (Simulation time: 02 hr 46 min 10 sec)
*** Reached end of trace: (6, "traces/canneal_big0.champsimtrace")
*** Reached end of trace: (2, "traces/canneal_big0.champsimtrace")
*** Reached end of trace: (5, "traces/canneal_big3.champsimtrace")
*** Reached end of trace: (1, "traces/canneal_big3.champsimtrace")
*** Reached end of trace: (0, "traces/canneal_big2.champsimtrace")
*** Reached end of trace: (4, "traces/canneal_big2.champsimtrace")
Simulation finished CPU 2 instructions: 100000000 cycles: 42260891 cumulative IPC: 2.366 (Simulation time: 02 hr 51 min 32 sec)
Simulation finished CPU 6 instructions: 100000000 cycles: 42344471 cumulative IPC: 2.362 (Simulation time: 02 hr 51 min 44 sec)
*** Reached end of trace: (5, "traces/canneal_big3.champsimtrace")
*** Reached end of trace: (1, "traces/canneal_big3.champsimtrace")
Heartbeat CPU 5 instructions: 290000001 cycles: 72503657 heartbeat IPC: 4 cumulative IPC: 4 (Simulation time: 02 hr 51 min 57 sec)
Heartbeat CPU 1 instructions: 290000001 cycles: 72503657 heartbeat IPC: 4 cumulative IPC: 4 (Simulation time: 02 hr 51 min 57 sec)
*** Reached end of trace: (0, "traces/canneal_big2.champsimtrace")
*** Reached end of trace: (4, "traces/canneal_big2.champsimtrace")
Heartbeat CPU 0 instructions: 290000001 cycles: 72503804 heartbeat IPC: 4 cumulative IPC: 4 (Simulation time: 02 hr 51 min 57 sec)
Heartbeat CPU 4 instructions: 290000001 cycles: 72503805 heartbeat IPC: 4 cumulative IPC: 4 (Simulation time: 02 hr 51 min 57 sec)
*** Reached end of trace: (6, "traces/canneal_big0.champsimtrace")
Heartbeat CPU 6 instructions: 180000054 cycles: 73124988 heartbeat IPC: 2.402 cumulative IPC: 2.367 (Simulation time: 02 hr 53 min 24 sec)
*** Reached end of trace: (2, "traces/canneal_big0.champsimtrace")
Heartbeat CPU 2 instructions: 180000054 cycles: 73158765 heartbeat IPC: 2.402 cumulative IPC: 2.372 (Simulation time: 02 hr 53 min 28 sec)
*** Reached end of trace: (7, "traces/canneal_big1.champsimtrace")
*** Reached end of trace: (3, "traces/canneal_big1.champsimtrace")
*** Reached end of trace: (5, "traces/canneal_big3.champsimtrace")
*** Reached end of trace: (1, "traces/canneal_big3.champsimtrace")
*** Reached end of trace: (0, "traces/canneal_big2.champsimtrace")
*** Reached end of trace: (4, "traces/canneal_big2.champsimtrace")
*** Reached end of trace: (5, "traces/canneal_big3.champsimtrace")
*** Reached end of trace: (1, "traces/canneal_big3.champsimtrace")
Heartbeat CPU 5 instructions: 300000001 cycles: 75003657 heartbeat IPC: 4 cumulative IPC: 4 (Simulation time: 02 hr 57 min 45 sec)
Heartbeat CPU 1 instructions: 300000001 cycles: 75003657 heartbeat IPC: 4 cumulative IPC: 4 (Simulation time: 02 hr 57 min 45 sec)
*** Reached end of trace: (0, "traces/canneal_big2.champsimtrace")
*** Reached end of trace: (4, "traces/canneal_big2.champsimtrace")
Heartbeat CPU 0 instructions: 300000001 cycles: 75003804 heartbeat IPC: 4 cumulative IPC: 4 (Simulation time: 02 hr 57 min 45 sec)
Heartbeat CPU 4 instructions: 300000001 cycles: 75003805 heartbeat IPC: 4 cumulative IPC: 4 (Simulation time: 02 hr 57 min 45 sec)
*** Reached end of trace: (6, "traces/canneal_big0.champsimtrace")
*** Reached end of trace: (2, "traces/canneal_big0.champsimtrace")
*** Reached end of trace: (5, "traces/canneal_big3.champsimtrace")
*** Reached end of trace: (1, "traces/canneal_big3.champsimtrace")
*** Reached end of trace: (0, "traces/canneal_big2.champsimtrace")
*** Reached end of trace: (4, "traces/canneal_big2.champsimtrace")
*** Reached end of trace: (6, "traces/canneal_big0.champsimtrace")
Heartbeat CPU 6 instructions: 190000057 cycles: 77296424 heartbeat IPC: 2.397 cumulative IPC: 2.37 (Simulation time: 03 hr 02 min 59 sec)
*** Reached end of trace: (2, "traces/canneal_big0.champsimtrace")
Heartbeat CPU 2 instructions: 190000057 cycles: 77329651 heartbeat IPC: 2.398 cumulative IPC: 2.374 (Simulation time: 03 hr 03 min 04 sec)
*** Reached end of trace: (5, "traces/canneal_big3.champsimtrace")
*** Reached end of trace: (1, "traces/canneal_big3.champsimtrace")
Heartbeat CPU 5 instructions: 310000001 cycles: 77503657 heartbeat IPC: 4 cumulative IPC: 4 (Simulation time: 03 hr 03 min 29 sec)
Heartbeat CPU 1 instructions: 310000001 cycles: 77503657 heartbeat IPC: 4 cumulative IPC: 4 (Simulation time: 03 hr 03 min 29 sec)
*** Reached end of trace: (0, "traces/canneal_big2.champsimtrace")
*** Reached end of trace: (4, "traces/canneal_big2.champsimtrace")
Heartbeat CPU 0 instructions: 310000001 cycles: 77503804 heartbeat IPC: 4 cumulative IPC: 4 (Simulation time: 03 hr 03 min 29 sec)
Heartbeat CPU 4 instructions: 310000001 cycles: 77503805 heartbeat IPC: 4 cumulative IPC: 4 (Simulation time: 03 hr 03 min 29 sec)
*** Reached end of trace: (5, "traces/canneal_big3.champsimtrace")
*** Reached end of trace: (1, "traces/canneal_big3.champsimtrace")
*** Reached end of trace: (0, "traces/canneal_big2.champsimtrace")
*** Reached end of trace: (4, "traces/canneal_big2.champsimtrace")
*** Reached end of trace: (6, "traces/canneal_big0.champsimtrace")
*** Reached end of trace: (2, "traces/canneal_big0.champsimtrace")
*** Reached end of trace: (5, "traces/canneal_big3.champsimtrace")
*** Reached end of trace: (1, "traces/canneal_big3.champsimtrace")
Heartbeat CPU 5 instructions: 320000001 cycles: 80003657 heartbeat IPC: 4 cumulative IPC: 4 (Simulation time: 03 hr 09 min 11 sec)
Heartbeat CPU 1 instructions: 320000001 cycles: 80003657 heartbeat IPC: 4 cumulative IPC: 4 (Simulation time: 03 hr 09 min 11 sec)
*** Reached end of trace: (0, "traces/canneal_big2.champsimtrace")
*** Reached end of trace: (4, "traces/canneal_big2.champsimtrace")
Heartbeat CPU 0 instructions: 320000001 cycles: 80003804 heartbeat IPC: 4 cumulative IPC: 4 (Simulation time: 03 hr 09 min 11 sec)
Heartbeat CPU 4 instructions: 320000001 cycles: 80003805 heartbeat IPC: 4 cumulative IPC: 4 (Simulation time: 03 hr 09 min 11 sec)
*** Reached end of trace: (5, "traces/canneal_big3.champsimtrace")
*** Reached end of trace: (1, "traces/canneal_big3.champsimtrace")
*** Reached end of trace: (0, "traces/canneal_big2.champsimtrace")
*** Reached end of trace: (4, "traces/canneal_big2.champsimtrace")
*** Reached end of trace: (6, "traces/canneal_big0.champsimtrace")
Heartbeat CPU 6 instructions: 200000060 cycles: 81466505 heartbeat IPC: 2.398 cumulative IPC: 2.372 (Simulation time: 03 hr 12 min 30 sec)
*** Reached end of trace: (2, "traces/canneal_big0.champsimtrace")
Heartbeat CPU 2 instructions: 200000060 cycles: 81500251 heartbeat IPC: 2.398 cumulative IPC: 2.376 (Simulation time: 03 hr 12 min 34 sec)
*** Reached end of trace: (5, "traces/canneal_big3.champsimtrace")
*** Reached end of trace: (1, "traces/canneal_big3.champsimtrace")
Heartbeat CPU 5 instructions: 330000001 cycles: 82503657 heartbeat IPC: 4 cumulative IPC: 4 (Simulation time: 03 hr 14 min 51 sec)
Heartbeat CPU 1 instructions: 330000001 cycles: 82503657 heartbeat IPC: 4 cumulative IPC: 4 (Simulation time: 03 hr 14 min 51 sec)
*** Reached end of trace: (0, "traces/canneal_big2.champsimtrace")
*** Reached end of trace: (4, "traces/canneal_big2.champsimtrace")
Heartbeat CPU 0 instructions: 330000001 cycles: 82503804 heartbeat IPC: 4 cumulative IPC: 4 (Simulation time: 03 hr 14 min 51 sec)
Heartbeat CPU 4 instructions: 330000001 cycles: 82503805 heartbeat IPC: 4 cumulative IPC: 4 (Simulation time: 03 hr 14 min 51 sec)
*** Reached end of trace: (6, "traces/canneal_big0.champsimtrace")
*** Reached end of trace: (2, "traces/canneal_big0.champsimtrace")
*** Reached end of trace: (5, "traces/canneal_big3.champsimtrace")
*** Reached end of trace: (1, "traces/canneal_big3.champsimtrace")
*** Reached end of trace: (0, "traces/canneal_big2.champsimtrace")
*** Reached end of trace: (4, "traces/canneal_big2.champsimtrace")
*** Reached end of trace: (5, "traces/canneal_big3.champsimtrace")
*** Reached end of trace: (1, "traces/canneal_big3.champsimtrace")
Heartbeat CPU 5 instructions: 340000001 cycles: 85003657 heartbeat IPC: 4 cumulative IPC: 4 (Simulation time: 03 hr 20 min 32 sec)
Heartbeat CPU 1 instructions: 340000001 cycles: 85003657 heartbeat IPC: 4 cumulative IPC: 4 (Simulation time: 03 hr 20 min 32 sec)
*** Reached end of trace: (0, "traces/canneal_big2.champsimtrace")
*** Reached end of trace: (4, "traces/canneal_big2.champsimtrace")
Heartbeat CPU 0 instructions: 340000001 cycles: 85003804 heartbeat IPC: 4 cumulative IPC: 4 (Simulation time: 03 hr 20 min 33 sec)
Heartbeat CPU 4 instructions: 340000001 cycles: 85003805 heartbeat IPC: 4 cumulative IPC: 4 (Simulation time: 03 hr 20 min 33 sec)
*** Reached end of trace: (6, "traces/canneal_big0.champsimtrace")
Heartbeat CPU 6 instructions: 210000063 cycles: 85637256 heartbeat IPC: 2.398 cumulative IPC: 2.374 (Simulation time: 03 hr 21 min 59 sec)
*** Reached end of trace: (2, "traces/canneal_big0.champsimtrace")
Heartbeat CPU 2 instructions: 210000063 cycles: 85670998 heartbeat IPC: 2.398 cumulative IPC: 2.378 (Simulation time: 03 hr 22 min 04 sec)
*** Reached end of trace: (5, "traces/canneal_big3.champsimtrace")
*** Reached end of trace: (1, "traces/canneal_big3.champsimtrace")
*** Reached end of trace: (0, "traces/canneal_big2.champsimtrace")
*** Reached end of trace: (4, "traces/canneal_big2.champsimtrace")
*** Reached end of trace: (7, "traces/canneal_big1.champsimtrace")
*** Reached end of trace: (3, "traces/canneal_big1.champsimtrace")
Heartbeat CPU 7 instructions: 70000012 cycles: 87423379 heartbeat IPC: 0.3528 cumulative IPC: 0.3487 (Simulation time: 03 hr 26 min 03 sec)
Heartbeat CPU 3 instructions: 70000012 cycles: 87423380 heartbeat IPC: 0.3528 cumulative IPC: 0.3486 (Simulation time: 03 hr 26 min 03 sec)
*** Reached end of trace: (5, "traces/canneal_big3.champsimtrace")
*** Reached end of trace: (1, "traces/canneal_big3.champsimtrace")
Heartbeat CPU 5 instructions: 350000001 cycles: 87503657 heartbeat IPC: 4 cumulative IPC: 4 (Simulation time: 03 hr 26 min 14 sec)
Heartbeat CPU 1 instructions: 350000001 cycles: 87503657 heartbeat IPC: 4 cumulative IPC: 4 (Simulation time: 03 hr 26 min 14 sec)
*** Reached end of trace: (0, "traces/canneal_big2.champsimtrace")
*** Reached end of trace: (4, "traces/canneal_big2.champsimtrace")
Heartbeat CPU 0 instructions: 350000001 cycles: 87503804 heartbeat IPC: 4 cumulative IPC: 4 (Simulation time: 03 hr 26 min 14 sec)
Heartbeat CPU 4 instructions: 350000001 cycles: 87503805 heartbeat IPC: 4 cumulative IPC: 4 (Simulation time: 03 hr 26 min 14 sec)
*** Reached end of trace: (6, "traces/canneal_big0.champsimtrace")
*** Reached end of trace: (2, "traces/canneal_big0.champsimtrace")
*** Reached end of trace: (5, "traces/canneal_big3.champsimtrace")
*** Reached end of trace: (1, "traces/canneal_big3.champsimtrace")
*** Reached end of trace: (0, "traces/canneal_big2.champsimtrace")
*** Reached end of trace: (4, "traces/canneal_big2.champsimtrace")
*** Reached end of trace: (6, "traces/canneal_big0.champsimtrace")
Heartbeat CPU 6 instructions: 220000066 cycles: 89802157 heartbeat IPC: 2.401 cumulative IPC: 2.376 (Simulation time: 03 hr 31 min 28 sec)
*** Reached end of trace: (2, "traces/canneal_big0.champsimtrace")
Heartbeat CPU 2 instructions: 220000066 cycles: 89835589 heartbeat IPC: 2.401 cumulative IPC: 2.379 (Simulation time: 03 hr 31 min 33 sec)
*** Reached end of trace: (5, "traces/canneal_big3.champsimtrace")
*** Reached end of trace: (1, "traces/canneal_big3.champsimtrace")
Heartbeat CPU 5 instructions: 360000001 cycles: 90003657 heartbeat IPC: 4 cumulative IPC: 4 (Simulation time: 03 hr 31 min 57 sec)
Heartbeat CPU 1 instructions: 360000001 cycles: 90003657 heartbeat IPC: 4 cumulative IPC: 4 (Simulation time: 03 hr 31 min 57 sec)
*** Reached end of trace: (0, "traces/canneal_big2.champsimtrace")
*** Reached end of trace: (4, "traces/canneal_big2.champsimtrace")
Heartbeat CPU 0 instructions: 360000001 cycles: 90003804 heartbeat IPC: 4 cumulative IPC: 4 (Simulation time: 03 hr 31 min 57 sec)
Heartbeat CPU 4 instructions: 360000001 cycles: 90003805 heartbeat IPC: 4 cumulative IPC: 4 (Simulation time: 03 hr 31 min 57 sec)
*** Reached end of trace: (5, "traces/canneal_big3.champsimtrace")
*** Reached end of trace: (1, "traces/canneal_big3.champsimtrace")
*** Reached end of trace: (0, "traces/canneal_big2.champsimtrace")
*** Reached end of trace: (4, "traces/canneal_big2.champsimtrace")
*** Reached end of trace: (6, "traces/canneal_big0.champsimtrace")
*** Reached end of trace: (2, "traces/canneal_big0.champsimtrace")
*** Reached end of trace: (5, "traces/canneal_big3.champsimtrace")
*** Reached end of trace: (1, "traces/canneal_big3.champsimtrace")
Heartbeat CPU 5 instructions: 370000001 cycles: 92503657 heartbeat IPC: 4 cumulative IPC: 4 (Simulation time: 03 hr 37 min 39 sec)
Heartbeat CPU 1 instructions: 370000001 cycles: 92503657 heartbeat IPC: 4 cumulative IPC: 4 (Simulation time: 03 hr 37 min 39 sec)
*** Reached end of trace: (0, "traces/canneal_big2.champsimtrace")
*** Reached end of trace: (4, "traces/canneal_big2.champsimtrace")
Heartbeat CPU 0 instructions: 370000001 cycles: 92503804 heartbeat IPC: 4 cumulative IPC: 4 (Simulation time: 03 hr 37 min 39 sec)
Heartbeat CPU 4 instructions: 370000001 cycles: 92503805 heartbeat IPC: 4 cumulative IPC: 4 (Simulation time: 03 hr 37 min 39 sec)
*** Reached end of trace: (5, "traces/canneal_big3.champsimtrace")
*** Reached end of trace: (1, "traces/canneal_big3.champsimtrace")
*** Reached end of trace: (0, "traces/canneal_big2.champsimtrace")
*** Reached end of trace: (4, "traces/canneal_big2.champsimtrace")
*** Reached end of trace: (6, "traces/canneal_big0.champsimtrace")
Heartbeat CPU 6 instructions: 230000069 cycles: 93971708 heartbeat IPC: 2.398 cumulative IPC: 2.378 (Simulation time: 03 hr 40 min 58 sec)
*** Reached end of trace: (2, "traces/canneal_big0.champsimtrace")
Heartbeat CPU 2 instructions: 230000069 cycles: 94005084 heartbeat IPC: 2.398 cumulative IPC: 2.38 (Simulation time: 03 hr 41 min 03 sec)
*** Reached end of trace: (5, "traces/canneal_big3.champsimtrace")
*** Reached end of trace: (1, "traces/canneal_big3.champsimtrace")
Heartbeat CPU 5 instructions: 380000001 cycles: 95003657 heartbeat IPC: 4 cumulative IPC: 4 (Simulation time: 03 hr 43 min 19 sec)
Heartbeat CPU 1 instructions: 380000001 cycles: 95003657 heartbeat IPC: 4 cumulative IPC: 4 (Simulation time: 03 hr 43 min 19 sec)
*** Reached end of trace: (0, "traces/canneal_big2.champsimtrace")
*** Reached end of trace: (4, "traces/canneal_big2.champsimtrace")
Heartbeat CPU 0 instructions: 380000001 cycles: 95003804 heartbeat IPC: 4 cumulative IPC: 4 (Simulation time: 03 hr 43 min 19 sec)
Heartbeat CPU 4 instructions: 380000001 cycles: 95003805 heartbeat IPC: 4 cumulative IPC: 4 (Simulation time: 03 hr 43 min 19 sec)
*** Reached end of trace: (6, "traces/canneal_big0.champsimtrace")
*** Reached end of trace: (2, "traces/canneal_big0.champsimtrace")
*** Reached end of trace: (5, "traces/canneal_big3.champsimtrace")
*** Reached end of trace: (1, "traces/canneal_big3.champsimtrace")
*** Reached end of trace: (0, "traces/canneal_big2.champsimtrace")
*** Reached end of trace: (4, "traces/canneal_big2.champsimtrace")
*** Reached end of trace: (5, "traces/canneal_big3.champsimtrace")
*** Reached end of trace: (1, "traces/canneal_big3.champsimtrace")
Heartbeat CPU 5 instructions: 390000001 cycles: 97503657 heartbeat IPC: 4 cumulative IPC: 4 (Simulation time: 03 hr 49 min 00 sec)
Heartbeat CPU 1 instructions: 390000001 cycles: 97503657 heartbeat IPC: 4 cumulative IPC: 4 (Simulation time: 03 hr 49 min 00 sec)
*** Reached end of trace: (0, "traces/canneal_big2.champsimtrace")
*** Reached end of trace: (4, "traces/canneal_big2.champsimtrace")
Heartbeat CPU 0 instructions: 390000001 cycles: 97503804 heartbeat IPC: 4 cumulative IPC: 4 (Simulation time: 03 hr 49 min 00 sec)
Heartbeat CPU 4 instructions: 390000001 cycles: 97503805 heartbeat IPC: 4 cumulative IPC: 4 (Simulation time: 03 hr 49 min 00 sec)
*** Reached end of trace: (6, "traces/canneal_big0.champsimtrace")
Heartbeat CPU 6 instructions: 240000072 cycles: 98139278 heartbeat IPC: 2.399 cumulative IPC: 2.379 (Simulation time: 03 hr 50 min 27 sec)
*** Reached end of trace: (2, "traces/canneal_big0.champsimtrace")
Heartbeat CPU 2 instructions: 240000072 cycles: 98172441 heartbeat IPC: 2.4 cumulative IPC: 2.382 (Simulation time: 03 hr 50 min 32 sec)
*** Reached end of trace: (5, "traces/canneal_big3.champsimtrace")
*** Reached end of trace: (1, "traces/canneal_big3.champsimtrace")
*** Reached end of trace: (0, "traces/canneal_big2.champsimtrace")
*** Reached end of trace: (4, "traces/canneal_big2.champsimtrace")
*** Reached end of trace: (5, "traces/canneal_big3.champsimtrace")
*** Reached end of trace: (1, "traces/canneal_big3.champsimtrace")
Heartbeat CPU 5 instructions: 400000001 cycles: 100003657 heartbeat IPC: 4 cumulative IPC: 4 (Simulation time: 03 hr 54 min 42 sec)
Heartbeat CPU 1 instructions: 400000001 cycles: 100003657 heartbeat IPC: 4 cumulative IPC: 4 (Simulation time: 03 hr 54 min 42 sec)
*** Reached end of trace: (0, "traces/canneal_big2.champsimtrace")
*** Reached end of trace: (4, "traces/canneal_big2.champsimtrace")
Heartbeat CPU 0 instructions: 400000001 cycles: 100003804 heartbeat IPC: 4 cumulative IPC: 4 (Simulation time: 03 hr 54 min 42 sec)
Heartbeat CPU 4 instructions: 400000001 cycles: 100003805 heartbeat IPC: 4 cumulative IPC: 4 (Simulation time: 03 hr 54 min 42 sec)
*** Reached end of trace: (6, "traces/canneal_big0.champsimtrace")
*** Reached end of trace: (2, "traces/canneal_big0.champsimtrace")
*** Reached end of trace: (5, "traces/canneal_big3.champsimtrace")
*** Reached end of trace: (1, "traces/canneal_big3.champsimtrace")
*** Reached end of trace: (0, "traces/canneal_big2.champsimtrace")
*** Reached end of trace: (4, "traces/canneal_big2.champsimtrace")
*** Reached end of trace: (7, "traces/canneal_big1.champsimtrace")
*** Reached end of trace: (3, "traces/canneal_big1.champsimtrace")
*** Reached end of trace: (6, "traces/canneal_big0.champsimtrace")
Heartbeat CPU 6 instructions: 250000075 cycles: 102298184 heartbeat IPC: 2.404 cumulative IPC: 2.38 (Simulation time: 03 hr 59 min 55 sec)
*** Reached end of trace: (2, "traces/canneal_big0.champsimtrace")
Heartbeat CPU 2 instructions: 250000075 cycles: 102332511 heartbeat IPC: 2.404 cumulative IPC: 2.383 (Simulation time: 04 hr 00 min 00 sec)
*** Reached end of trace: (5, "traces/canneal_big3.champsimtrace")
*** Reached end of trace: (1, "traces/canneal_big3.champsimtrace")
Heartbeat CPU 5 instructions: 410000001 cycles: 102503657 heartbeat IPC: 4 cumulative IPC: 4 (Simulation time: 04 hr 00 min 24 sec)
Heartbeat CPU 1 instructions: 410000001 cycles: 102503657 heartbeat IPC: 4 cumulative IPC: 4 (Simulation time: 04 hr 00 min 24 sec)
*** Reached end of trace: (0, "traces/canneal_big2.champsimtrace")
*** Reached end of trace: (4, "traces/canneal_big2.champsimtrace")
Heartbeat CPU 0 instructions: 410000001 cycles: 102503804 heartbeat IPC: 4 cumulative IPC: 4 (Simulation time: 04 hr 00 min 24 sec)
Heartbeat CPU 4 instructions: 410000001 cycles: 102503805 heartbeat IPC: 4 cumulative IPC: 4 (Simulation time: 04 hr 00 min 24 sec)
*** Reached end of trace: (5, "traces/canneal_big3.champsimtrace")
*** Reached end of trace: (1, "traces/canneal_big3.champsimtrace")
*** Reached end of trace: (0, "traces/canneal_big2.champsimtrace")
*** Reached end of trace: (4, "traces/canneal_big2.champsimtrace")
*** Reached end of trace: (6, "traces/canneal_big0.champsimtrace")
*** Reached end of trace: (2, "traces/canneal_big0.champsimtrace")
*** Reached end of trace: (5, "traces/canneal_big3.champsimtrace")
*** Reached end of trace: (1, "traces/canneal_big3.champsimtrace")
Heartbeat CPU 5 instructions: 420000001 cycles: 105003657 heartbeat IPC: 4 cumulative IPC: 4 (Simulation time: 04 hr 06 min 06 sec)
Heartbeat CPU 1 instructions: 420000001 cycles: 105003657 heartbeat IPC: 4 cumulative IPC: 4 (Simulation time: 04 hr 06 min 06 sec)
*** Reached end of trace: (0, "traces/canneal_big2.champsimtrace")
*** Reached end of trace: (4, "traces/canneal_big2.champsimtrace")
Heartbeat CPU 0 instructions: 420000001 cycles: 105003804 heartbeat IPC: 4 cumulative IPC: 4 (Simulation time: 04 hr 06 min 06 sec)
Heartbeat CPU 4 instructions: 420000001 cycles: 105003805 heartbeat IPC: 4 cumulative IPC: 4 (Simulation time: 04 hr 06 min 06 sec)
*** Reached end of trace: (5, "traces/canneal_big3.champsimtrace")
*** Reached end of trace: (1, "traces/canneal_big3.champsimtrace")
*** Reached end of trace: (0, "traces/canneal_big2.champsimtrace")
*** Reached end of trace: (4, "traces/canneal_big2.champsimtrace")
*** Reached end of trace: (6, "traces/canneal_big0.champsimtrace")
Heartbeat CPU 6 instructions: 260000078 cycles: 106470441 heartbeat IPC: 2.397 cumulative IPC: 2.381 (Simulation time: 04 hr 09 min 25 sec)
*** Reached end of trace: (2, "traces/canneal_big0.champsimtrace")
Heartbeat CPU 2 instructions: 260000078 cycles: 106504263 heartbeat IPC: 2.397 cumulative IPC: 2.384 (Simulation time: 04 hr 09 min 29 sec)
*** Reached end of trace: (5, "traces/canneal_big3.champsimtrace")
*** Reached end of trace: (1, "traces/canneal_big3.champsimtrace")
Heartbeat CPU 5 instructions: 430000001 cycles: 107503657 heartbeat IPC: 4 cumulative IPC: 4 (Simulation time: 04 hr 11 min 46 sec)
Heartbeat CPU 1 instructions: 430000001 cycles: 107503657 heartbeat IPC: 4 cumulative IPC: 4 (Simulation time: 04 hr 11 min 46 sec)
*** Reached end of trace: (0, "traces/canneal_big2.champsimtrace")
*** Reached end of trace: (4, "traces/canneal_big2.champsimtrace")
Heartbeat CPU 0 instructions: 430000001 cycles: 107503804 heartbeat IPC: 4 cumulative IPC: 4 (Simulation time: 04 hr 11 min 46 sec)
Heartbeat CPU 4 instructions: 430000001 cycles: 107503805 heartbeat IPC: 4 cumulative IPC: 4 (Simulation time: 04 hr 11 min 46 sec)
*** Reached end of trace: (6, "traces/canneal_big0.champsimtrace")
*** Reached end of trace: (2, "traces/canneal_big0.champsimtrace")
*** Reached end of trace: (5, "traces/canneal_big3.champsimtrace")
*** Reached end of trace: (1, "traces/canneal_big3.champsimtrace")
*** Reached end of trace: (0, "traces/canneal_big2.champsimtrace")
*** Reached end of trace: (4, "traces/canneal_big2.champsimtrace")
*** Reached end of trace: (5, "traces/canneal_big3.champsimtrace")
*** Reached end of trace: (1, "traces/canneal_big3.champsimtrace")
Heartbeat CPU 5 instructions: 440000001 cycles: 110003657 heartbeat IPC: 4 cumulative IPC: 4 (Simulation time: 04 hr 17 min 27 sec)
Heartbeat CPU 1 instructions: 440000001 cycles: 110003657 heartbeat IPC: 4 cumulative IPC: 4 (Simulation time: 04 hr 17 min 27 sec)
*** Reached end of trace: (0, "traces/canneal_big2.champsimtrace")
*** Reached end of trace: (4, "traces/canneal_big2.champsimtrace")
Heartbeat CPU 0 instructions: 440000001 cycles: 110003804 heartbeat IPC: 4 cumulative IPC: 4 (Simulation time: 04 hr 17 min 27 sec)
Heartbeat CPU 4 instructions: 440000001 cycles: 110003805 heartbeat IPC: 4 cumulative IPC: 4 (Simulation time: 04 hr 17 min 27 sec)
*** Reached end of trace: (6, "traces/canneal_big0.champsimtrace")
Heartbeat CPU 6 instructions: 270000081 cycles: 110631042 heartbeat IPC: 2.403 cumulative IPC: 2.382 (Simulation time: 04 hr 18 min 53 sec)
*** Reached end of trace: (2, "traces/canneal_big0.champsimtrace")
Heartbeat CPU 2 instructions: 270000081 cycles: 110664749 heartbeat IPC: 2.404 cumulative IPC: 2.385 (Simulation time: 04 hr 18 min 58 sec)
*** Reached end of trace: (5, "traces/canneal_big3.champsimtrace")
*** Reached end of trace: (1, "traces/canneal_big3.champsimtrace")
*** Reached end of trace: (0, "traces/canneal_big2.champsimtrace")
*** Reached end of trace: (4, "traces/canneal_big2.champsimtrace")
*** Reached end of trace: (5, "traces/canneal_big3.champsimtrace")
*** Reached end of trace: (1, "traces/canneal_big3.champsimtrace")
Heartbeat CPU 5 instructions: 450000001 cycles: 112503657 heartbeat IPC: 4 cumulative IPC: 4 (Simulation time: 04 hr 23 min 09 sec)
Heartbeat CPU 1 instructions: 450000001 cycles: 112503657 heartbeat IPC: 4 cumulative IPC: 4 (Simulation time: 04 hr 23 min 09 sec)
*** Reached end of trace: (0, "traces/canneal_big2.champsimtrace")
*** Reached end of trace: (4, "traces/canneal_big2.champsimtrace")
Heartbeat CPU 0 instructions: 450000001 cycles: 112503804 heartbeat IPC: 4 cumulative IPC: 4 (Simulation time: 04 hr 23 min 09 sec)
Heartbeat CPU 4 instructions: 450000001 cycles: 112503805 heartbeat IPC: 4 cumulative IPC: 4 (Simulation time: 04 hr 23 min 09 sec)
*** Reached end of trace: (6, "traces/canneal_big0.champsimtrace")
*** Reached end of trace: (2, "traces/canneal_big0.champsimtrace")
*** Reached end of trace: (5, "traces/canneal_big3.champsimtrace")
*** Reached end of trace: (1, "traces/canneal_big3.champsimtrace")
*** Reached end of trace: (0, "traces/canneal_big2.champsimtrace")
*** Reached end of trace: (4, "traces/canneal_big2.champsimtrace")
*** Reached end of trace: (6, "traces/canneal_big0.champsimtrace")
Heartbeat CPU 6 instructions: 280000084 cycles: 114796657 heartbeat IPC: 2.401 cumulative IPC: 2.383 (Simulation time: 04 hr 28 min 22 sec)
*** Reached end of trace: (2, "traces/canneal_big0.champsimtrace")
Heartbeat CPU 2 instructions: 280000084 cycles: 114830540 heartbeat IPC: 2.401 cumulative IPC: 2.385 (Simulation time: 04 hr 28 min 27 sec)
*** Reached end of trace: (5, "traces/canneal_big3.champsimtrace")
*** Reached end of trace: (1, "traces/canneal_big3.champsimtrace")
Heartbeat CPU 5 instructions: 460000001 cycles: 115003657 heartbeat IPC: 4 cumulative IPC: 4 (Simulation time: 04 hr 28 min 51 sec)
Heartbeat CPU 1 instructions: 460000001 cycles: 115003657 heartbeat IPC: 4 cumulative IPC: 4 (Simulation time: 04 hr 28 min 51 sec)
*** Reached end of trace: (0, "traces/canneal_big2.champsimtrace")
*** Reached end of trace: (4, "traces/canneal_big2.champsimtrace")
Heartbeat CPU 0 instructions: 460000001 cycles: 115003804 heartbeat IPC: 4 cumulative IPC: 4 (Simulation time: 04 hr 28 min 51 sec)
Heartbeat CPU 4 instructions: 460000001 cycles: 115003805 heartbeat IPC: 4 cumulative IPC: 4 (Simulation time: 04 hr 28 min 51 sec)
*** Reached end of trace: (7, "traces/canneal_big1.champsimtrace")
*** Reached end of trace: (3, "traces/canneal_big1.champsimtrace")
Heartbeat CPU 7 instructions: 80000014 cycles: 115702470 heartbeat IPC: 0.3536 cumulative IPC: 0.3503 (Simulation time: 04 hr 30 min 26 sec)
Heartbeat CPU 3 instructions: 80000014 cycles: 115702471 heartbeat IPC: 0.3536 cumulative IPC: 0.3502 (Simulation time: 04 hr 30 min 26 sec)
*** Reached end of trace: (5, "traces/canneal_big3.champsimtrace")
*** Reached end of trace: (1, "traces/canneal_big3.champsimtrace")
*** Reached end of trace: (0, "traces/canneal_big2.champsimtrace")
*** Reached end of trace: (4, "traces/canneal_big2.champsimtrace")
*** Reached end of trace: (6, "traces/canneal_big0.champsimtrace")
*** Reached end of trace: (2, "traces/canneal_big0.champsimtrace")
*** Reached end of trace: (5, "traces/canneal_big3.champsimtrace")
*** Reached end of trace: (1, "traces/canneal_big3.champsimtrace")
Heartbeat CPU 5 instructions: 470000001 cycles: 117503657 heartbeat IPC: 4 cumulative IPC: 4 (Simulation time: 04 hr 34 min 34 sec)
Heartbeat CPU 1 instructions: 470000001 cycles: 117503657 heartbeat IPC: 4 cumulative IPC: 4 (Simulation time: 04 hr 34 min 34 sec)
*** Reached end of trace: (0, "traces/canneal_big2.champsimtrace")
*** Reached end of trace: (4, "traces/canneal_big2.champsimtrace")
Heartbeat CPU 0 instructions: 470000001 cycles: 117503804 heartbeat IPC: 4 cumulative IPC: 4 (Simulation time: 04 hr 34 min 34 sec)
Heartbeat CPU 4 instructions: 470000001 cycles: 117503805 heartbeat IPC: 4 cumulative IPC: 4 (Simulation time: 04 hr 34 min 34 sec)
*** Reached end of trace: (5, "traces/canneal_big3.champsimtrace")
*** Reached end of trace: (1, "traces/canneal_big3.champsimtrace")
*** Reached end of trace: (0, "traces/canneal_big2.champsimtrace")
*** Reached end of trace: (4, "traces/canneal_big2.champsimtrace")
*** Reached end of trace: (6, "traces/canneal_big0.champsimtrace")
Heartbeat CPU 6 instructions: 290000087 cycles: 118960518 heartbeat IPC: 2.402 cumulative IPC: 2.384 (Simulation time: 04 hr 37 min 51 sec)
*** Reached end of trace: (2, "traces/canneal_big0.champsimtrace")
Heartbeat CPU 2 instructions: 290000087 cycles: 118994211 heartbeat IPC: 2.402 cumulative IPC: 2.386 (Simulation time: 04 hr 37 min 56 sec)
*** Reached end of trace: (5, "traces/canneal_big3.champsimtrace")
*** Reached end of trace: (1, "traces/canneal_big3.champsimtrace")
Heartbeat CPU 5 instructions: 480000001 cycles: 120003657 heartbeat IPC: 4 cumulative IPC: 4 (Simulation time: 04 hr 40 min 14 sec)
Heartbeat CPU 1 instructions: 480000001 cycles: 120003657 heartbeat IPC: 4 cumulative IPC: 4 (Simulation time: 04 hr 40 min 14 sec)
*** Reached end of trace: (0, "traces/canneal_big2.champsimtrace")
*** Reached end of trace: (4, "traces/canneal_big2.champsimtrace")
Heartbeat CPU 0 instructions: 480000001 cycles: 120003804 heartbeat IPC: 4 cumulative IPC: 4 (Simulation time: 04 hr 40 min 14 sec)
Heartbeat CPU 4 instructions: 480000001 cycles: 120003805 heartbeat IPC: 4 cumulative IPC: 4 (Simulation time: 04 hr 40 min 14 sec)
*** Reached end of trace: (6, "traces/canneal_big0.champsimtrace")
*** Reached end of trace: (2, "traces/canneal_big0.champsimtrace")
*** Reached end of trace: (5, "traces/canneal_big3.champsimtrace")
*** Reached end of trace: (1, "traces/canneal_big3.champsimtrace")
*** Reached end of trace: (0, "traces/canneal_big2.champsimtrace")
*** Reached end of trace: (4, "traces/canneal_big2.champsimtrace")
*** Reached end of trace: (5, "traces/canneal_big3.champsimtrace")
*** Reached end of trace: (1, "traces/canneal_big3.champsimtrace")
Heartbeat CPU 5 instructions: 490000001 cycles: 122503657 heartbeat IPC: 4 cumulative IPC: 4 (Simulation time: 04 hr 45 min 55 sec)
Heartbeat CPU 1 instructions: 490000001 cycles: 122503657 heartbeat IPC: 4 cumulative IPC: 4 (Simulation time: 04 hr 45 min 55 sec)
*** Reached end of trace: (0, "traces/canneal_big2.champsimtrace")
*** Reached end of trace: (4, "traces/canneal_big2.champsimtrace")
Heartbeat CPU 0 instructions: 490000001 cycles: 122503804 heartbeat IPC: 4 cumulative IPC: 4 (Simulation time: 04 hr 45 min 55 sec)
Heartbeat CPU 4 instructions: 490000001 cycles: 122503805 heartbeat IPC: 4 cumulative IPC: 4 (Simulation time: 04 hr 45 min 55 sec)
*** Reached end of trace: (6, "traces/canneal_big0.champsimtrace")
Heartbeat CPU 6 instructions: 300000090 cycles: 123130361 heartbeat IPC: 2.398 cumulative IPC: 2.385 (Simulation time: 04 hr 47 min 20 sec)
*** Reached end of trace: (2, "traces/canneal_big0.champsimtrace")
Heartbeat CPU 2 instructions: 300000090 cycles: 123164492 heartbeat IPC: 2.398 cumulative IPC: 2.387 (Simulation time: 04 hr 47 min 25 sec)
*** Reached end of trace: (5, "traces/canneal_big3.champsimtrace")
*** Reached end of trace: (1, "traces/canneal_big3.champsimtrace")
*** Reached end of trace: (0, "traces/canneal_big2.champsimtrace")
*** Reached end of trace: (4, "traces/canneal_big2.champsimtrace")
*** Reached end of trace: (5, "traces/canneal_big3.champsimtrace")
*** Reached end of trace: (1, "traces/canneal_big3.champsimtrace")
*** Reached end of trace: (0, "traces/canneal_big2.champsimtrace")
Heartbeat CPU 5 instructions: 500000001 cycles: 125003657 heartbeat IPC: 4 cumulative IPC: 4 (Simulation time: 04 hr 51 min 35 sec)
Heartbeat CPU 1 instructions: 500000001 cycles: 125003657 heartbeat IPC: 4 cumulative IPC: 4 (Simulation time: 04 hr 51 min 35 sec)
*** Reached end of trace: (4, "traces/canneal_big2.champsimtrace")
Heartbeat CPU 0 instructions: 500000001 cycles: 125003804 heartbeat IPC: 4 cumulative IPC: 4 (Simulation time: 04 hr 51 min 35 sec)
Heartbeat CPU 4 instructions: 500000001 cycles: 125003805 heartbeat IPC: 4 cumulative IPC: 4 (Simulation time: 04 hr 51 min 35 sec)
*** Reached end of trace: (6, "traces/canneal_big0.champsimtrace")
*** Reached end of trace: (2, "traces/canneal_big0.champsimtrace")
*** Reached end of trace: (5, "traces/canneal_big3.champsimtrace")
*** Reached end of trace: (1, "traces/canneal_big3.champsimtrace")
*** Reached end of trace: (0, "traces/canneal_big2.champsimtrace")
*** Reached end of trace: (4, "traces/canneal_big2.champsimtrace")
*** Reached end of trace: (6, "traces/canneal_big0.champsimtrace")
Heartbeat CPU 6 instructions: 310000093 cycles: 127305081 heartbeat IPC: 2.395 cumulative IPC: 2.385 (Simulation time: 04 hr 56 min 48 sec)
*** Reached end of trace: (2, "traces/canneal_big0.champsimtrace")
Heartbeat CPU 2 instructions: 310000093 cycles: 127338848 heartbeat IPC: 2.396 cumulative IPC: 2.387 (Simulation time: 04 hr 56 min 52 sec)
*** Reached end of trace: (5, "traces/canneal_big3.champsimtrace")
*** Reached end of trace: (1, "traces/canneal_big3.champsimtrace")
*** Reached end of trace: (0, "traces/canneal_big2.champsimtrace")
Heartbeat CPU 5 instructions: 510000001 cycles: 127503657 heartbeat IPC: 4 cumulative IPC: 4 (Simulation time: 04 hr 57 min 16 sec)
Heartbeat CPU 1 instructions: 510000001 cycles: 127503657 heartbeat IPC: 4 cumulative IPC: 4 (Simulation time: 04 hr 57 min 16 sec)
*** Reached end of trace: (4, "traces/canneal_big2.champsimtrace")
Heartbeat CPU 0 instructions: 510000001 cycles: 127503804 heartbeat IPC: 4 cumulative IPC: 4 (Simulation time: 04 hr 57 min 16 sec)
Heartbeat CPU 4 instructions: 510000001 cycles: 127503805 heartbeat IPC: 4 cumulative IPC: 4 (Simulation time: 04 hr 57 min 16 sec)
*** Reached end of trace: (5, "traces/canneal_big3.champsimtrace")
*** Reached end of trace: (1, "traces/canneal_big3.champsimtrace")
*** Reached end of trace: (0, "traces/canneal_big2.champsimtrace")
*** Reached end of trace: (4, "traces/canneal_big2.champsimtrace")
*** Reached end of trace: (6, "traces/canneal_big0.champsimtrace")
*** Reached end of trace: (2, "traces/canneal_big0.champsimtrace")
*** Reached end of trace: (7, "traces/canneal_big1.champsimtrace")
*** Reached end of trace: (3, "traces/canneal_big1.champsimtrace")
*** Reached end of trace: (5, "traces/canneal_big3.champsimtrace")
*** Reached end of trace: (1, "traces/canneal_big3.champsimtrace")
*** Reached end of trace: (0, "traces/canneal_big2.champsimtrace")
*** Reached end of trace: (4, "traces/canneal_big2.champsimtrace")
Heartbeat CPU 5 instructions: 520000001 cycles: 130003657 heartbeat IPC: 4 cumulative IPC: 4 (Simulation time: 05 hr 02 min 56 sec)
Heartbeat CPU 1 instructions: 520000001 cycles: 130003657 heartbeat IPC: 4 cumulative IPC: 4 (Simulation time: 05 hr 02 min 56 sec)
Heartbeat CPU 0 instructions: 520000001 cycles: 130003804 heartbeat IPC: 4 cumulative IPC: 4 (Simulation time: 05 hr 02 min 56 sec)
Heartbeat CPU 4 instructions: 520000001 cycles: 130003805 heartbeat IPC: 4 cumulative IPC: 4 (Simulation time: 05 hr 02 min 56 sec)
*** Reached end of trace: (5, "traces/canneal_big3.champsimtrace")
[...]
cpu5->cpu5_ITLB AVERAGE MISS LATENCY: - cycles
cpu5_ITLB COHERENCE INVALIDATIONS:          0
cpu5_ITLB COHERENCE WRITE-HIT OTHER-SHARER EVENTS:          0
cpu5_DTLB COHERENCE INVALIDATIONS:          0
cpu5_DTLB COHERENCE WRITE-HIT OTHER-SHARER EVENTS:          0
cpu4_STLB COHERENCE INVALIDATIONS:          0
cpu4_STLB COHERENCE WRITE-HIT OTHER-SHARER EVENTS:          0
cpu4_L2C COHERENCE INVALIDATIONS:          0
cpu4_L2C COHERENCE WRITE-HIT OTHER-SHARER EVENTS:          0
cpu4->cpu4_L1I TOTAL        ACCESS:  152283256 HIT:  152283256 MISS:          0 MSHR_MERGE:          0
cpu4->cpu4_L1I LOAD         ACCESS:  152283256 HIT:  152283256 MISS:          0 MSHR_MERGE:          0
cpu4->cpu4_L1I RFO          ACCESS:          0 HIT:          0 MISS:          0 MSHR_MERGE:          0
cpu4->cpu4_L1I PREFETCH     ACCESS:          0 HIT:          0 MISS:          0 MSHR_MERGE:          0
cpu4->cpu4_L1I WRITE        ACCESS:          0 HIT:          0 MISS:          0 MSHR_MERGE:          0
cpu4->cpu4_L1I TRANSLATION  ACCESS:          0 HIT:          0 MISS:          0 MSHR_MERGE:          0
cpu4->cpu4_L1I PREFETCH REQUESTED:          0 ISSUED:          0 USEFUL:          0 USELESS:          0
cpu4->cpu4_L1I AVERAGE MISS LATENCY: - cycles
cpu4_L1I COHERENCE INVALIDATIONS:          0
cpu4_L1I COHERENCE WRITE-HIT OTHER-SHARER EVENTS:          0
cpu4_L1D COHERENCE INVALIDATIONS:          0
cpu4_L1D COHERENCE WRITE-HIT OTHER-SHARER EVENTS:          0
cpu4->cpu4_ITLB TOTAL        ACCESS:  126700855 HIT:  126700855 MISS:          0 MSHR_MERGE:          0
cpu4->cpu4_ITLB LOAD         ACCESS:  126700855 HIT:  126700855 MISS:          0 MSHR_MERGE:          0
cpu4->cpu4_ITLB RFO          ACCESS:          0 HIT:          0 MISS:          0 MSHR_MERGE:          0
cpu4->cpu4_ITLB PREFETCH     ACCESS:          0 HIT:          0 MISS:          0 MSHR_MERGE:          0
cpu4->cpu4_ITLB WRITE        ACCESS:          0 HIT:          0 MISS:          0 MSHR_MERGE:          0
cpu4->cpu4_ITLB TRANSLATION  ACCESS:          0 HIT:          0 MISS:          0 MSHR_MERGE:          0
cpu4->cpu4_ITLB PREFETCH REQUESTED:          0 ISSUED:          0 USEFUL:          0 USELESS:          0
cpu4->cpu4_ITLB AVERAGE MISS LATENCY: - cycles
cpu4_ITLB COHERENCE INVALIDATIONS:          0
cpu4_ITLB COHERENCE WRITE-HIT OTHER-SHARER EVENTS:          0
cpu4_DTLB COHERENCE INVALIDATIONS:          0
cpu4_DTLB COHERENCE WRITE-HIT OTHER-SHARER EVENTS:          0
cpu3->cpu3_STLB TOTAL        ACCESS:    2220975 HIT:    2024745 MISS:     196230 MSHR_MERGE:          0
cpu3->cpu3_STLB LOAD         ACCESS:    2220975 HIT:    2024745 MISS:     196230 MSHR_MERGE:          0
cpu3->cpu3_STLB RFO          ACCESS:          0 HIT:          0 MISS:          0 MSHR_MERGE:          0
cpu3->cpu3_STLB PREFETCH     ACCESS:          0 HIT:          0 MISS:          0 MSHR_MERGE:          0
cpu3->cpu3_STLB WRITE        ACCESS:          0 HIT:          0 MISS:          0 MSHR_MERGE:          0
cpu3->cpu3_STLB TRANSLATION  ACCESS:          0 HIT:          0 MISS:          0 MSHR_MERGE:          0
cpu3->cpu3_STLB PREFETCH REQUESTED:          0 ISSUED:          0 USEFUL:          0 USELESS:          0
cpu3->cpu3_STLB AVERAGE MISS LATENCY: 471.8 cycles
cpu3_STLB COHERENCE INVALIDATIONS:          0
cpu3_STLB COHERENCE WRITE-HIT OTHER-SHARER EVENTS:          0
cpu3->cpu3_L2C TOTAL        ACCESS:    2352720 HIT:     411441 MISS:    1941279 MSHR_MERGE:          0
cpu3->cpu3_L2C LOAD         ACCESS:    1963876 HIT:     410361 MISS:    1553515 MSHR_MERGE:          0
cpu3->cpu3_L2C RFO          ACCESS:          0 HIT:          0 MISS:          0 MSHR_MERGE:          0
cpu3->cpu3_L2C PREFETCH     ACCESS:          0 HIT:          0 MISS:          0 MSHR_MERGE:          0
cpu3->cpu3_L2C WRITE        ACCESS:          0 HIT:          0 MISS:          0 MSHR_MERGE:          0
cpu3->cpu3_L2C TRANSLATION  ACCESS:     388844 HIT:       1080 MISS:     387764 MSHR_MERGE:          0
cpu3->cpu3_L2C PREFETCH REQUESTED:          0 ISSUED:          0 USEFUL:          0 USELESS:          0
cpu3->cpu3_L2C AVERAGE MISS LATENCY: 178.6 cycles
cpu3_L2C COHERENCE INVALIDATIONS:          0
cpu3_L2C COHERENCE WRITE-HIT OTHER-SHARER EVENTS:          0
cpu3->cpu3_L1I TOTAL        ACCESS:   33491824 HIT:   31359786 MISS:    2132038 MSHR_MERGE:     168162
cpu3->cpu3_L1I LOAD         ACCESS:   33491824 HIT:   31359786 MISS:    2132038 MSHR_MERGE:     168162
cpu3->cpu3_L1I RFO          ACCESS:          0 HIT:          0 MISS:          0 MSHR_MERGE:          0
cpu3->cpu3_L1I PREFETCH     ACCESS:          0 HIT:          0 MISS:          0 MSHR_MERGE:          0
cpu3->cpu3_L1I WRITE        ACCESS:          0 HIT:          0 MISS:          0 MSHR_MERGE:          0
cpu3->cpu3_L1I TRANSLATION  ACCESS:          0 HIT:          0 MISS:          0 MSHR_MERGE:          0
cpu3->cpu3_L1I PREFETCH REQUESTED:          0 ISSUED:          0 USEFUL:          0 USELESS:          0
cpu3->cpu3_L1I AVERAGE MISS LATENCY: 140 cycles
cpu3_L1I COHERENCE INVALIDATIONS:          0
cpu3_L1I COHERENCE WRITE-HIT OTHER-SHARER EVENTS:          0
cpu3->cpu3_L1D TOTAL        ACCESS:     392595 HIT:       3751 MISS:     388844 MSHR_MERGE:          0
cpu3->cpu3_L1D LOAD         ACCESS:          0 HIT:          0 MISS:          0 MSHR_MERGE:          0
cpu3->cpu3_L1D RFO          ACCESS:          0 HIT:          0 MISS:          0 MSHR_MERGE:          0
cpu3->cpu3_L1D PREFETCH     ACCESS:          0 HIT:          0 MISS:          0 MSHR_MERGE:          0
cpu3->cpu3_L1D WRITE        ACCESS:          0 HIT:          0 MISS:          0 MSHR_MERGE:          0
cpu3->cpu3_L1D TRANSLATION  ACCESS:     392595 HIT:       3751 MISS:     388844 MSHR_MERGE:          0
cpu3->cpu3_L1D PREFETCH REQUESTED:          0 ISSUED:          0 USEFUL:          0 USELESS:          0
cpu3->cpu3_L1D AVERAGE MISS LATENCY: 232 cycles
cpu3_L1D COHERENCE INVALIDATIONS:          0
cpu3_L1D COHERENCE WRITE-HIT OTHER-SHARER EVENTS:          0
cpu3->cpu3_ITLB TOTAL        ACCESS:   32955026 HIT:   30682900 MISS:    2272126 MSHR_MERGE:      51151
cpu3->cpu3_ITLB LOAD         ACCESS:   32955026 HIT:   30682900 MISS:    2272126 MSHR_MERGE:      51151
cpu3->cpu3_ITLB RFO          ACCESS:          0 HIT:          0 MISS:          0 MSHR_MERGE:          0
cpu3->cpu3_ITLB PREFETCH     ACCESS:          0 HIT:          0 MISS:          0 MSHR_MERGE:          0
cpu3->cpu3_ITLB WRITE        ACCESS:          0 HIT:          0 MISS:          0 MSHR_MERGE:          0
cpu3->cpu3_ITLB TRANSLATION  ACCESS:          0 HIT:          0 MISS:          0 MSHR_MERGE:          0
cpu3->cpu3_ITLB PREFETCH REQUESTED:          0 ISSUED:          0 USEFUL:          0 USELESS:          0
cpu3->cpu3_ITLB AVERAGE MISS LATENCY: 45.77 cycles
cpu3_ITLB COHERENCE INVALIDATIONS:          0
cpu3_ITLB COHERENCE WRITE-HIT OTHER-SHARER EVENTS:          0
cpu3_DTLB COHERENCE INVALIDATIONS:          0
cpu3_DTLB COHERENCE WRITE-HIT OTHER-SHARER EVENTS:          0
cpu2->cpu2_STLB TOTAL        ACCESS:     254640 HIT:     254640 MISS:          0 MSHR_MERGE:          0
cpu2->cpu2_STLB LOAD         ACCESS:     254640 HIT:     254640 MISS:          0 MSHR_MERGE:          0
cpu2->cpu2_STLB RFO          ACCESS:          0 HIT:          0 MISS:          0 MSHR_MERGE:          0
cpu2->cpu2_STLB PREFETCH     ACCESS:          0 HIT:          0 MISS:          0 MSHR_MERGE:          0
cpu2->cpu2_STLB WRITE        ACCESS:          0 HIT:          0 MISS:          0 MSHR_MERGE:          0
cpu2->cpu2_STLB TRANSLATION  ACCESS:          0 HIT:          0 MISS:          0 MSHR_MERGE:          0
cpu2->cpu2_STLB PREFETCH REQUESTED:          0 ISSUED:          0 USEFUL:          0 USELESS:          0
cpu2->cpu2_STLB AVERAGE MISS LATENCY: - cycles
cpu2_STLB COHERENCE INVALIDATIONS:          0
cpu2_STLB COHERENCE WRITE-HIT OTHER-SHARER EVENTS:          0
cpu2->cpu2_L2C TOTAL        ACCESS:    8152699 HIT:    3953460 MISS:    4199239 MSHR_MERGE:          0
cpu2->cpu2_L2C LOAD         ACCESS:    1286091 HIT:     433916 MISS:     852175 MSHR_MERGE:          0
cpu2->cpu2_L2C RFO          ACCESS:    3406865 HIT:      59938 MISS:    3346927 MSHR_MERGE:          0
cpu2->cpu2_L2C PREFETCH     ACCESS:          0 HIT:          0 MISS:          0 MSHR_MERGE:          0
cpu2->cpu2_L2C WRITE        ACCESS:    3459743 HIT:    3459606 MISS:        137 MSHR_MERGE:          0
cpu2->cpu2_L2C TRANSLATION  ACCESS:          0 HIT:          0 MISS:          0 MSHR_MERGE:          0
cpu2->cpu2_L2C PREFETCH REQUESTED:          0 ISSUED:          0 USEFUL:          0 USELESS:          0
cpu2->cpu2_L2C AVERAGE MISS LATENCY: 54 cycles
cpu2_L2C COHERENCE INVALIDATIONS:          0
cpu2_L2C COHERENCE WRITE-HIT OTHER-SHARER EVENTS:          0
cpu2->cpu2_L1I TOTAL        ACCESS:  105633278 HIT:  105375939 MISS:     257339 MSHR_MERGE:      72787
cpu2->cpu2_L1I LOAD         ACCESS:  105633278 HIT:  105375939 MISS:     257339 MSHR_MERGE:      72787
cpu2->cpu2_L1I RFO          ACCESS:          0 HIT:          0 MISS:          0 MSHR_MERGE:          0
cpu2->cpu2_L1I PREFETCH     ACCESS:          0 HIT:          0 MISS:          0 MSHR_MERGE:          0
cpu2->cpu2_L1I WRITE        ACCESS:          0 HIT:          0 MISS:          0 MSHR_MERGE:          0
cpu2->cpu2_L1I TRANSLATION  ACCESS:          0 HIT:          0 MISS:          0 MSHR_MERGE:          0
cpu2->cpu2_L1I PREFETCH REQUESTED:          0 ISSUED:          0 USEFUL:          0 USELESS:          0
cpu2->cpu2_L1I AVERAGE MISS LATENCY: 242.8 cycles
cpu2_L1I COHERENCE INVALIDATIONS:          0
cpu2_L1I COHERENCE WRITE-HIT OTHER-SHARER EVENTS:          0
cpu2->cpu2_L1D TOTAL        ACCESS:  136542698 HIT:  123735037 MISS:   12807661 MSHR_MERGE:    8294444
cpu2->cpu2_L1D LOAD         ACCESS:   13182011 HIT:   11391167 MISS:    1790844 MSHR_MERGE:     689305
cpu2->cpu2_L1D RFO          ACCESS:          0 HIT:          0 MISS:          0 MSHR_MERGE:          0
cpu2->cpu2_L1D PREFETCH     ACCESS:          0 HIT:          0 MISS:          0 MSHR_MERGE:          0
cpu2->cpu2_L1D WRITE        ACCESS:  123360687 HIT:  112343870 MISS:   11016817 MSHR_MERGE:    7605139
cpu2->cpu2_L1D TRANSLATION  ACCESS:          0 HIT:          0 MISS:          0 MSHR_MERGE:          0
cpu2->cpu2_L1D PREFETCH REQUESTED:          0 ISSUED:          0 USEFUL:          0 USELESS:          0
cpu2->cpu2_L1D AVERAGE MISS LATENCY: 48.53 cycles
cpu2_L1D COHERENCE INVALIDATIONS:          0
cpu2_L1D COHERENCE WRITE-HIT OTHER-SHARER EVENTS:          0
cpu2->cpu2_ITLB TOTAL        ACCESS:   90172157 HIT:   90134246 MISS:      37911 MSHR_MERGE:      14655
cpu2->cpu2_ITLB LOAD         ACCESS:   90172157 HIT:   90134246 MISS:      37911 MSHR_MERGE:      14655
cpu2->cpu2_ITLB RFO          ACCESS:          0 HIT:          0 MISS:          0 MSHR_MERGE:          0
cpu2->cpu2_ITLB PREFETCH     ACCESS:          0 HIT:          0 MISS:          0 MSHR_MERGE:          0
cpu2->cpu2_ITLB WRITE        ACCESS:          0 HIT:          0 MISS:          0 MSHR_MERGE:          0
cpu2->cpu2_ITLB TRANSLATION  ACCESS:          0 HIT:          0 MISS:          0 MSHR_MERGE:          0
cpu2->cpu2_ITLB PREFETCH REQUESTED:          0 ISSUED:          0 USEFUL:          0 USELESS:          0
cpu2->cpu2_ITLB AVERAGE MISS LATENCY: 4.006 cycles
cpu2_ITLB COHERENCE INVALIDATIONS:          0
cpu2_ITLB COHERENCE WRITE-HIT OTHER-SHARER EVENTS:          0
cpu2->cpu2_DTLB TOTAL        ACCESS:  110803178 HIT:  110504887 MISS:     298291 MSHR_MERGE:      66907
cpu2->cpu2_DTLB LOAD         ACCESS:  110803178 HIT:  110504887 MISS:     298291 MSHR_MERGE:      66907
cpu2->cpu2_DTLB RFO          ACCESS:          0 HIT:          0 MISS:          0 MSHR_MERGE:          0
cpu2->cpu2_DTLB PREFETCH     ACCESS:          0 HIT:          0 MISS:          0 MSHR_MERGE:          0
cpu2->cpu2_DTLB WRITE        ACCESS:          0 HIT:          0 MISS:          0 MSHR_MERGE:          0
cpu2->cpu2_DTLB TRANSLATION  ACCESS:          0 HIT:          0 MISS:          0 MSHR_MERGE:          0
cpu2->cpu2_DTLB PREFETCH REQUESTED:          0 ISSUED:          0 USEFUL:          0 USELESS:          0
cpu2->cpu2_DTLB AVERAGE MISS LATENCY: 4 cycles
cpu2_DTLB COHERENCE INVALIDATIONS:          0
cpu2_DTLB COHERENCE WRITE-HIT OTHER-SHARER EVENTS:          0
cpu1_STLB COHERENCE INVALIDATIONS:          0
cpu1_STLB COHERENCE WRITE-HIT OTHER-SHARER EVENTS:          0
cpu1_L2C COHERENCE INVALIDATIONS:          0
cpu1_L2C COHERENCE WRITE-HIT OTHER-SHARER EVENTS:          0
cpu1->cpu1_L1I TOTAL        ACCESS:  163003127 HIT:  163003127 MISS:          0 MSHR_MERGE:          0
cpu1->cpu1_L1I LOAD         ACCESS:  163003127 HIT:  163003127 MISS:          0 MSHR_MERGE:          0
cpu1->cpu1_L1I RFO          ACCESS:          0 HIT:          0 MISS:          0 MSHR_MERGE:          0
cpu1->cpu1_L1I PREFETCH     ACCESS:          0 HIT:          0 MISS:          0 MSHR_MERGE:          0
cpu1->cpu1_L1I WRITE        ACCESS:          0 HIT:          0 MISS:          0 MSHR_MERGE:          0
cpu1->cpu1_L1I TRANSLATION  ACCESS:          0 HIT:          0 MISS:          0 MSHR_MERGE:          0
cpu1->cpu1_L1I PREFETCH REQUESTED:          0 ISSUED:          0 USEFUL:          0 USELESS:          0
cpu1->cpu1_L1I AVERAGE MISS LATENCY: - cycles
cpu1_L1I COHERENCE INVALIDATIONS:          0
cpu1_L1I COHERENCE WRITE-HIT OTHER-SHARER EVENTS:          0
cpu1_L1D COHERENCE INVALIDATIONS:          0
cpu1_L1D COHERENCE WRITE-HIT OTHER-SHARER EVENTS:          0
cpu1->cpu1_ITLB TOTAL        ACCESS:  136047179 HIT:  136047179 MISS:          0 MSHR_MERGE:          0
cpu1->cpu1_ITLB LOAD         ACCESS:  136047179 HIT:  136047179 MISS:          0 MSHR_MERGE:          0
cpu1->cpu1_ITLB RFO          ACCESS:          0 HIT:          0 MISS:          0 MSHR_MERGE:          0
cpu1->cpu1_ITLB PREFETCH     ACCESS:          0 HIT:          0 MISS:          0 MSHR_MERGE:          0
cpu1->cpu1_ITLB WRITE        ACCESS:          0 HIT:          0 MISS:          0 MSHR_MERGE:          0
cpu1->cpu1_ITLB TRANSLATION  ACCESS:          0 HIT:          0 MISS:          0 MSHR_MERGE:          0
cpu1->cpu1_ITLB PREFETCH REQUESTED:          0 ISSUED:          0 USEFUL:          0 USELESS:          0
cpu1->cpu1_ITLB AVERAGE MISS LATENCY: - cycles
cpu1_ITLB COHERENCE INVALIDATIONS:          0
cpu1_ITLB COHERENCE WRITE-HIT OTHER-SHARER EVENTS:          0
cpu1_DTLB COHERENCE INVALIDATIONS:          0
cpu1_DTLB COHERENCE WRITE-HIT OTHER-SHARER EVENTS:          0
cpu0_STLB COHERENCE INVALIDATIONS:          0
cpu0_STLB COHERENCE WRITE-HIT OTHER-SHARER EVENTS:          0
cpu0_L2C COHERENCE INVALIDATIONS:          0
cpu0_L2C COHERENCE WRITE-HIT OTHER-SHARER EVENTS:          0
cpu0->cpu0_L1I TOTAL        ACCESS:  163133775 HIT:  163133775 MISS:          0 MSHR_MERGE:          0
cpu0->cpu0_L1I LOAD         ACCESS:  163133775 HIT:  163133775 MISS:          0 MSHR_MERGE:          0
cpu0->cpu0_L1I RFO          ACCESS:          0 HIT:          0 MISS:          0 MSHR_MERGE:          0
cpu0->cpu0_L1I PREFETCH     ACCESS:          0 HIT:          0 MISS:          0 MSHR_MERGE:          0
cpu0->cpu0_L1I WRITE        ACCESS:          0 HIT:          0 MISS:          0 MSHR_MERGE:          0
cpu0->cpu0_L1I TRANSLATION  ACCESS:          0 HIT:          0 MISS:          0 MSHR_MERGE:          0
cpu0->cpu0_L1I PREFETCH REQUESTED:          0 ISSUED:          0 USEFUL:          0 USELESS:          0
cpu0->cpu0_L1I AVERAGE MISS LATENCY: - cycles
cpu0_L1I COHERENCE INVALIDATIONS:          0
cpu0_L1I COHERENCE WRITE-HIT OTHER-SHARER EVENTS:          0
cpu0_L1D COHERENCE INVALIDATIONS:          0
cpu0_L1D COHERENCE WRITE-HIT OTHER-SHARER EVENTS:          0
cpu0->cpu0_ITLB TOTAL        ACCESS:  136116315 HIT:  136116315 MISS:          0 MSHR_MERGE:          0
cpu0->cpu0_ITLB LOAD         ACCESS:  136116315 HIT:  136116315 MISS:          0 MSHR_MERGE:          0
cpu0->cpu0_ITLB RFO          ACCESS:          0 HIT:          0 MISS:          0 MSHR_MERGE:          0
cpu0->cpu0_ITLB PREFETCH     ACCESS:          0 HIT:          0 MISS:          0 MSHR_MERGE:          0
cpu0->cpu0_ITLB WRITE        ACCESS:          0 HIT:          0 MISS:          0 MSHR_MERGE:          0
cpu0->cpu0_ITLB TRANSLATION  ACCESS:          0 HIT:          0 MISS:          0 MSHR_MERGE:          0
cpu0->cpu0_ITLB PREFETCH REQUESTED:          0 ISSUED:          0 USEFUL:          0 USELESS:          0
cpu0->cpu0_ITLB AVERAGE MISS LATENCY: - cycles
cpu0_ITLB COHERENCE INVALIDATIONS:          0
cpu0_ITLB COHERENCE WRITE-HIT OTHER-SHARER EVENTS:          0
cpu0_DTLB COHERENCE INVALIDATIONS:          0
cpu0_DTLB COHERENCE WRITE-HIT OTHER-SHARER EVENTS:          0
cpu2->LLC TOTAL        ACCESS:    7581699 HIT:    6692146 MISS:     889553 MSHR_MERGE:     364769
cpu2->LLC LOAD         ACCESS:     852175 HIT:     312741 MISS:     539434 MSHR_MERGE:     352777
cpu2->LLC RFO          ACCESS:    3346927 HIT:    3164683 MISS:     182244 MSHR_MERGE:      11992
cpu2->LLC PREFETCH     ACCESS:          0 HIT:          0 MISS:          0 MSHR_MERGE:          0
cpu2->LLC WRITE        ACCESS:    3382597 HIT:    3214722 MISS:     167875 MSHR_MERGE:          0
cpu2->LLC TRANSLATION  ACCESS:          0 HIT:          0 MISS:          0 MSHR_MERGE:          0
cpu2->LLC PREFETCH REQUESTED:          0 ISSUED:          0 USEFUL:          0 USELESS:          0
cpu2->LLC AVERAGE MISS LATENCY: 891.5 cycles
cpu3->LLC TOTAL        ACCESS:    1941279 HIT:     386924 MISS:    1554355 MSHR_MERGE:     369942
cpu3->LLC LOAD         ACCESS:    1553515 HIT:     386543 MISS:    1166972 MSHR_MERGE:     369942
cpu3->LLC RFO          ACCESS:          0 HIT:          0 MISS:          0 MSHR_MERGE:          0
cpu3->LLC PREFETCH     ACCESS:          0 HIT:          0 MISS:          0 MSHR_MERGE:          0
cpu3->LLC WRITE        ACCESS:          0 HIT:          0 MISS:          0 MSHR_MERGE:          0
cpu3->LLC TRANSLATION  ACCESS:     387764 HIT:        381 MISS:     387383 MSHR_MERGE:          0
cpu3->LLC PREFETCH REQUESTED:          0 ISSUED:          0 USEFUL:          0 USELESS:          0
cpu3->LLC AVERAGE MISS LATENCY: 856.3 cycles
cpu6->LLC TOTAL        ACCESS:    7579188 HIT:    6437559 MISS:    1141629 MSHR_MERGE:     135263
cpu6->LLC LOAD         ACCESS:     852107 HIT:     261740 MISS:     590367 MSHR_MERGE:     132409
cpu6->LLC RFO          ACCESS:    3345571 HIT:    2993869 MISS:     351702 MSHR_MERGE:       2854
cpu6->LLC PREFETCH     ACCESS:          0 HIT:          0 MISS:          0 MSHR_MERGE:          0
cpu6->LLC WRITE        ACCESS:    3381510 HIT:    3181950 MISS:     199560 MSHR_MERGE:          0
cpu6->LLC TRANSLATION  ACCESS:          0 HIT:          0 MISS:          0 MSHR_MERGE:          0
cpu6->LLC PREFETCH REQUESTED:          0 ISSUED:          0 USEFUL:          0 USELESS:          0
cpu6->LLC AVERAGE MISS LATENCY: 865.6 cycles
cpu7->LLC TOTAL        ACCESS:    1940108 HIT:     390226 MISS:    1549882 MSHR_MERGE:     769055
cpu7->LLC LOAD         ACCESS:    1552318 HIT:     389892 MISS:    1162426 MSHR_MERGE:     769055
cpu7->LLC RFO          ACCESS:          0 HIT:          0 MISS:          0 MSHR_MERGE:          0
cpu7->LLC PREFETCH     ACCESS:          0 HIT:          0 MISS:          0 MSHR_MERGE:          0
cpu7->LLC WRITE        ACCESS:          0 HIT:          0 MISS:          0 MSHR_MERGE:          0
cpu7->LLC TRANSLATION  ACCESS:     387790 HIT:        334 MISS:     387456 MSHR_MERGE:          0
cpu7->LLC PREFETCH REQUESTED:          0 ISSUED:          0 USEFUL:          0 USELESS:          0
cpu7->LLC AVERAGE MISS LATENCY: 569.9 cycles
LLC COHERENCE INVALIDATIONS:    6603804
LLC COHERENCE WRITE-HIT OTHER-SHARER EVENTS:    6396580

DRAM Statistics

Channel 0 RQ ROW_BUFFER_HIT:      47280
  ROW_BUFFER_MISS:    3077450
  AVG DBUS CONGESTED CYCLE: 11.15
Channel 0 WQ ROW_BUFFER_HIT:     149466
  ROW_BUFFER_MISS:     352897
  FULL:          0
Channel 0 REFRESHES ISSUED:      23653

VMEM ALIASED FILLS (cross-CPU shared-page hits): 303689
