[VMEM] WARNING: physical memory size is smaller than virtual memory size.

*** ChampSim Multicore Out-of-Order Simulator ***
Warmup Instructions: 50000000
Simulation Instructions: 100000000
Number of CPUs: 8
Page size: 4096

Off-chip DRAM Size: 16 GiB Channels: 1 Width: 64-bit Data Rate: 3205 MT/s
*** Reached end of trace: (2, "traces/canneal_big3.champsimtrace")
*** Reached end of trace: (6, "traces/canneal_big3.champsimtrace")
*** Reached end of trace: (5, "traces/canneal_big2.champsimtrace")
*** Reached end of trace: (1, "traces/canneal_big2.champsimtrace")
*** Reached end of trace: (7, "traces/canneal_big0.champsimtrace")
*** Reached end of trace: (3, "traces/canneal_big0.champsimtrace")
*** Reached end of trace: (2, "traces/canneal_big3.champsimtrace")
*** Reached end of trace: (6, "traces/canneal_big3.champsimtrace")
Heartbeat CPU 2 instructions: 10000001 cycles: 2503650 heartbeat IPC: 3.994 cumulative IPC: 3.994 (Simulation time: 00 hr 05 min 56 sec)
Heartbeat CPU 6 instructions: 10000001 cycles: 2503657 heartbeat IPC: 3.994 cumulative IPC: 3.994 (Simulation time: 00 hr 05 min 56 sec)
*** Reached end of trace: (5, "traces/canneal_big2.champsimtrace")
*** Reached end of trace: (1, "traces/canneal_big2.champsimtrace")
Heartbeat CPU 5 instructions: 10000001 cycles: 2503805 heartbeat IPC: 3.994 cumulative IPC: 3.994 (Simulation time: 00 hr 05 min 56 sec)
Heartbeat CPU 1 instructions: 10000001 cycles: 2503810 heartbeat IPC: 3.994 cumulative IPC: 3.994 (Simulation time: 00 hr 05 min 56 sec)
*** Reached end of trace: (2, "traces/canneal_big3.champsimtrace")
*** Reached end of trace: (6, "traces/canneal_big3.champsimtrace")
*** Reached end of trace: (5, "traces/canneal_big2.champsimtrace")
*** Reached end of trace: (1, "traces/canneal_big2.champsimtrace")
*** Reached end of trace: (7, "traces/canneal_big0.champsimtrace")
Heartbeat CPU 7 instructions: 10000003 cycles: 3983795 heartbeat IPC: 2.51 cumulative IPC: 2.51 (Simulation time: 00 hr 09 min 26 sec)
*** Reached end of trace: (3, "traces/canneal_big0.champsimtrace")
Heartbeat CPU 3 instructions: 10000003 cycles: 3986367 heartbeat IPC: 2.509 cumulative IPC: 2.509 (Simulation time: 00 hr 09 min 26 sec)
*** Reached end of trace: (0, "traces/canneal_big1.champsimtrace")
*** Reached end of trace: (4, "traces/canneal_big1.champsimtrace")
*** Reached end of trace: (2, "traces/canneal_big3.champsimtrace")
*** Reached end of trace: (6, "traces/canneal_big3.champsimtrace")
Heartbeat CPU 2 instructions: 20000001 cycles: 5003650 heartbeat IPC: 4 cumulative IPC: 3.997 (Simulation time: 00 hr 11 min 59 sec)
Heartbeat CPU 6 instructions: 20000001 cycles: 5003657 heartbeat IPC: 4 cumulative IPC: 3.997 (Simulation time: 00 hr 11 min 59 sec)
*** Reached end of trace: (5, "traces/canneal_big2.champsimtrace")
*** Reached end of trace: (1, "traces/canneal_big2.champsimtrace")
Heartbeat CPU 5 instructions: 20000001 cycles: 5003805 heartbeat IPC: 4 cumulative IPC: 3.997 (Simulation time: 00 hr 12 min 00 sec)
Heartbeat CPU 1 instructions: 20000001 cycles: 5003810 heartbeat IPC: 4 cumulative IPC: 3.997 (Simulation time: 00 hr 12 min 00 sec)
*** Reached end of trace: (7, "traces/canneal_big0.champsimtrace")
*** Reached end of trace: (3, "traces/canneal_big0.champsimtrace")
*** Reached end of trace: (2, "traces/canneal_big3.champsimtrace")
*** Reached end of trace: (6, "traces/canneal_big3.champsimtrace")
*** Reached end of trace: (5, "traces/canneal_big2.champsimtrace")
*** Reached end of trace: (1, "traces/canneal_big2.champsimtrace")
*** Reached end of trace: (0, "traces/canneal_big1.champsimtrace")
Heartbeat CPU 0 instructions: 10000002 cycles: 7295136 heartbeat IPC: 1.371 cumulative IPC: 1.371 (Simulation time: 00 hr 17 min 39 sec)
*** Reached end of trace: (4, "traces/canneal_big1.champsimtrace")
Heartbeat CPU 4 instructions: 10000002 cycles: 7295654 heartbeat IPC: 1.371 cumulative IPC: 1.371 (Simulation time: 00 hr 17 min 39 sec)
*** Reached end of trace: (2, "traces/canneal_big3.champsimtrace")
*** Reached end of trace: (6, "traces/canneal_big3.champsimtrace")
Heartbeat CPU 2 instructions: 30000001 cycles: 7503650 heartbeat IPC: 4 cumulative IPC: 3.998 (Simulation time: 00 hr 18 min 09 sec)
Heartbeat CPU 6 instructions: 30000001 cycles: 7503657 heartbeat IPC: 4 cumulative IPC: 3.998 (Simulation time: 00 hr 18 min 09 sec)
*** Reached end of trace: (5, "traces/canneal_big2.champsimtrace")
*** Reached end of trace: (1, "traces/canneal_big2.champsimtrace")
Heartbeat CPU 5 instructions: 30000001 cycles: 7503805 heartbeat IPC: 4 cumulative IPC: 3.998 (Simulation time: 00 hr 18 min 09 sec)
Heartbeat CPU 1 instructions: 30000001 cycles: 7503810 heartbeat IPC: 4 cumulative IPC: 3.998 (Simulation time: 00 hr 18 min 09 sec)
*** Reached end of trace: (7, "traces/canneal_big0.champsimtrace")
Heartbeat CPU 7 instructions: 20000006 cycles: 7824282 heartbeat IPC: 2.604 cumulative IPC: 2.556 (Simulation time: 00 hr 18 min 55 sec)
*** Reached end of trace: (3, "traces/canneal_big0.champsimtrace")
Heartbeat CPU 3 instructions: 20000006 cycles: 7830234 heartbeat IPC: 2.602 cumulative IPC: 2.554 (Simulation time: 00 hr 18 min 56 sec)
*** Reached end of trace: (2, "traces/canneal_big3.champsimtrace")
*** Reached end of trace: (6, "traces/canneal_big3.champsimtrace")
*** Reached end of trace: (5, "traces/canneal_big2.champsimtrace")
*** Reached end of trace: (1, "traces/canneal_big2.champsimtrace")
*** Reached end of trace: (7, "traces/canneal_big0.champsimtrace")
*** Reached end of trace: (3, "traces/canneal_big0.champsimtrace")
*** Reached end of trace: (2, "traces/canneal_big3.champsimtrace")
*** Reached end of trace: (6, "traces/canneal_big3.champsimtrace")
Heartbeat CPU 2 instructions: 40000001 cycles: 10003650 heartbeat IPC: 4 cumulative IPC: 3.999 (Simulation time: 00 hr 24 min 21 sec)
Heartbeat CPU 6 instructions: 40000001 cycles: 10003657 heartbeat IPC: 4 cumulative IPC: 3.999 (Simulation time: 00 hr 24 min 21 sec)
*** Reached end of trace: (5, "traces/canneal_big2.champsimtrace")
*** Reached end of trace: (1, "traces/canneal_big2.champsimtrace")
Heartbeat CPU 5 instructions: 40000001 cycles: 10003805 heartbeat IPC: 4 cumulative IPC: 3.998 (Simulation time: 00 hr 24 min 21 sec)
Heartbeat CPU 1 instructions: 40000001 cycles: 10003810 heartbeat IPC: 4 cumulative IPC: 3.998 (Simulation time: 00 hr 24 min 21 sec)
*** Reached end of trace: (0, "traces/canneal_big1.champsimtrace")
*** Reached end of trace: (4, "traces/canneal_big1.champsimtrace")
*** Reached end of trace: (2, "traces/canneal_big3.champsimtrace")
*** Reached end of trace: (6, "traces/canneal_big3.champsimtrace")
*** Reached end of trace: (5, "traces/canneal_big2.champsimtrace")
*** Reached end of trace: (1, "traces/canneal_big2.champsimtrace")
*** Reached end of trace: (7, "traces/canneal_big0.champsimtrace")
Heartbeat CPU 7 instructions: 30000009 cycles: 11664848 heartbeat IPC: 2.604 cumulative IPC: 2.572 (Simulation time: 00 hr 28 min 26 sec)
*** Reached end of trace: (3, "traces/canneal_big0.champsimtrace")
Heartbeat CPU 3 instructions: 30000009 cycles: 11674535 heartbeat IPC: 2.601 cumulative IPC: 2.57 (Simulation time: 00 hr 28 min 27 sec)
*** Reached end of trace: (2, "traces/canneal_big3.champsimtrace")
*** Reached end of trace: (6, "traces/canneal_big3.champsimtrace")
Heartbeat CPU 2 instructions: 50000001 cycles: 12503650 heartbeat IPC: 4 cumulative IPC: 3.999 (Simulation time: 00 hr 30 min 34 sec)
Warmup finished CPU 2 instructions: 50000001 cycles: 12503650 cumulative IPC: 3.999 (Simulation time: 00 hr 30 min 34 sec)
Heartbeat CPU 6 instructions: 50000001 cycles: 12503657 heartbeat IPC: 4 cumulative IPC: 3.999 (Simulation time: 00 hr 30 min 34 sec)
Warmup finished CPU 6 instructions: 50000001 cycles: 12503657 cumulative IPC: 3.999 (Simulation time: 00 hr 30 min 34 sec)
*** Reached end of trace: (5, "traces/canneal_big2.champsimtrace")
*** Reached end of trace: (1, "traces/canneal_big2.champsimtrace")
Heartbeat CPU 5 instructions: 50000001 cycles: 12503805 heartbeat IPC: 4 cumulative IPC: 3.999 (Simulation time: 00 hr 30 min 34 sec)
Warmup finished CPU 5 instructions: 50000001 cycles: 12503805 cumulative IPC: 3.999 (Simulation time: 00 hr 30 min 34 sec)
Heartbeat CPU 1 instructions: 50000001 cycles: 12503810 heartbeat IPC: 4 cumulative IPC: 3.999 (Simulation time: 00 hr 30 min 34 sec)
Warmup finished CPU 1 instructions: 50000001 cycles: 12503810 cumulative IPC: 3.999 (Simulation time: 00 hr 30 min 34 sec)
*** Reached end of trace: (0, "traces/canneal_big1.champsimtrace")
Heartbeat CPU 0 instructions: 20000004 cycles: 12981927 heartbeat IPC: 1.758 cumulative IPC: 1.541 (Simulation time: 00 hr 31 min 43 sec)
*** Reached end of trace: (4, "traces/canneal_big1.champsimtrace")
Heartbeat CPU 4 instructions: 20000004 cycles: 12984861 heartbeat IPC: 1.758 cumulative IPC: 1.54 (Simulation time: 00 hr 31 min 43 sec)
*** Reached end of trace: (7, "traces/canneal_big0.champsimtrace")
*** Reached end of trace: (3, "traces/canneal_big0.champsimtrace")
*** Reached end of trace: (2, "traces/canneal_big3.champsimtrace")
*** Reached end of trace: (6, "traces/canneal_big3.champsimtrace")
*** Reached end of trace: (5, "traces/canneal_big2.champsimtrace")
*** Reached end of trace: (1, "traces/canneal_big2.champsimtrace")
*** Reached end of trace: (2, "traces/canneal_big3.champsimtrace")
*** Reached end of trace: (6, "traces/canneal_big3.champsimtrace")
Heartbeat CPU 2 instructions: 60000001 cycles: 15003650 heartbeat IPC: 4 cumulative IPC: 3.999 (Simulation time: 00 hr 36 min 41 sec)
Heartbeat CPU 6 instructions: 60000001 cycles: 15003657 heartbeat IPC: 4 cumulative IPC: 3.999 (Simulation time: 00 hr 36 min 41 sec)
*** Reached end of trace: (5, "traces/canneal_big2.champsimtrace")
*** Reached end of trace: (1, "traces/canneal_big2.champsimtrace")
Heartbeat CPU 5 instructions: 60000001 cycles: 15003805 heartbeat IPC: 4 cumulative IPC: 3.999 (Simulation time: 00 hr 36 min 41 sec)
Heartbeat CPU 1 instructions: 60000001 cycles: 15003810 heartbeat IPC: 4 cumulative IPC: 3.999 (Simulation time: 00 hr 36 min 41 sec)
*** Reached end of trace: (7, "traces/canneal_big0.champsimtrace")
Heartbeat CPU 7 instructions: 40000012 cycles: 15505234 heartbeat IPC: 2.604 cumulative IPC: 2.58 (Simulation time: 00 hr 37 min 54 sec)
*** Reached end of trace: (3, "traces/canneal_big0.champsimtrace")
Heartbeat CPU 3 instructions: 40000012 cycles: 15519991 heartbeat IPC: 2.6 cumulative IPC: 2.577 (Simulation time: 00 hr 37 min 56 sec)
*** Reached end of trace: (0, "traces/canneal_big1.champsimtrace")
*** Reached end of trace: (4, "traces/canneal_big1.champsimtrace")
*** Reached end of trace: (2, "traces/canneal_big3.champsimtrace")
*** Reached end of trace: (6, "traces/canneal_big3.champsimtrace")
*** Reached end of trace: (5, "traces/canneal_big2.champsimtrace")
*** Reached end of trace: (1, "traces/canneal_big2.champsimtrace")
*** Reached end of trace: (7, "traces/canneal_big0.champsimtrace")
*** Reached end of trace: (3, "traces/canneal_big0.champsimtrace")
*** Reached end of trace: (2, "traces/canneal_big3.champsimtrace")
*** Reached end of trace: (6, "traces/canneal_big3.champsimtrace")
Heartbeat CPU 2 instructions: 70000001 cycles: 17503650 heartbeat IPC: 4 cumulative IPC: 3.999 (Simulation time: 00 hr 42 min 45 sec)
Heartbeat CPU 6 instructions: 70000001 cycles: 17503657 heartbeat IPC: 4 cumulative IPC: 3.999 (Simulation time: 00 hr 42 min 45 sec)
*** Reached end of trace: (5, "traces/canneal_big2.champsimtrace")
*** Reached end of trace: (1, "traces/canneal_big2.champsimtrace")
Heartbeat CPU 5 instructions: 70000001 cycles: 17503805 heartbeat IPC: 4 cumulative IPC: 3.999 (Simulation time: 00 hr 42 min 45 sec)
Heartbeat CPU 1 instructions: 70000001 cycles: 17503810 heartbeat IPC: 4 cumulative IPC: 3.999 (Simulation time: 00 hr 42 min 45 sec)
*** Reached end of trace: (0, "traces/canneal_big1.champsimtrace")
Heartbeat CPU 0 instructions: 30000004 cycles: 18668269 heartbeat IPC: 1.759 cumulative IPC: 1.607 (Simulation time: 00 hr 45 min 32 sec)
*** Reached end of trace: (4, "traces/canneal_big1.champsimtrace")
Heartbeat CPU 4 instructions: 30000004 cycles: 18677059 heartbeat IPC: 1.757 cumulative IPC: 1.606 (Simulation time: 00 hr 45 min 34 sec)
*** Reached end of trace: (2, "traces/canneal_big3.champsimtrace")
*** Reached end of trace: (6, "traces/canneal_big3.champsimtrace")
*** Reached end of trace: (5, "traces/canneal_big2.champsimtrace")
*** Reached end of trace: (1, "traces/canneal_big2.champsimtrace")
*** Reached end of trace: (7, "traces/canneal_big0.champsimtrace")
Warmup finished CPU 7 instructions: 50000000 cycles: 19345947 cumulative IPC: 2.585 (Simulation time: 00 hr 47 min 06 sec)
Heartbeat CPU 7 instructions: 50000015 cycles: 19345950 heartbeat IPC: 2.604 cumulative IPC: 2.585 (Simulation time: 00 hr 47 min 06 sec)
*** Reached end of trace: (3, "traces/canneal_big0.champsimtrace")
Warmup finished CPU 3 instructions: 50000000 cycles: 19365444 cumulative IPC: 2.582 (Simulation time: 00 hr 47 min 09 sec)
Heartbeat CPU 3 instructions: 50000015 cycles: 19365447 heartbeat IPC: 2.6 cumulative IPC: 2.582 (Simulation time: 00 hr 47 min 09 sec)
*** Reached end of trace: (2, "traces/canneal_big3.champsimtrace")
*** Reached end of trace: (6, "traces/canneal_big3.champsimtrace")
Heartbeat CPU 2 instructions: 80000001 cycles: 20003650 heartbeat IPC: 4 cumulative IPC: 3.999 (Simulation time: 00 hr 48 min 42 sec)
Heartbeat CPU 6 instructions: 80000001 cycles: 20003657 heartbeat IPC: 4 cumulative IPC: 3.999 (Simulation time: 00 hr 48 min 42 sec)
*** Reached end of trace: (5, "traces/canneal_big2.champsimtrace")
*** Reached end of trace: (1, "traces/canneal_big2.champsimtrace")
Heartbeat CPU 5 instructions: 80000001 cycles: 20003805 heartbeat IPC: 4 cumulative IPC: 3.999 (Simulation time: 00 hr 48 min 42 sec)
Heartbeat CPU 1 instructions: 80000001 cycles: 20003810 heartbeat IPC: 4 cumulative IPC: 3.999 (Simulation time: 00 hr 48 min 42 sec)
*** Reached end of trace: (2, "traces/canneal_big3.champsimtrace")
*** Reached end of trace: (6, "traces/canneal_big3.champsimtrace")
*** Reached end of trace: (5, "traces/canneal_big2.champsimtrace")
*** Reached end of trace: (1, "traces/canneal_big2.champsimtrace")
*** Reached end of trace: (7, "traces/canneal_big0.champsimtrace")
*** Reached end of trace: (3, "traces/canneal_big0.champsimtrace")
*** Reached end of trace: (0, "traces/canneal_big1.champsimtrace")
*** Reached end of trace: (4, "traces/canneal_big1.champsimtrace")
*** Reached end of trace: (2, "traces/canneal_big3.champsimtrace")
*** Reached end of trace: (6, "traces/canneal_big3.champsimtrace")
Heartbeat CPU 2 instructions: 90000001 cycles: 22503650 heartbeat IPC: 4 cumulative IPC: 3.999 (Simulation time: 00 hr 54 min 35 sec)
Heartbeat CPU 6 instructions: 90000001 cycles: 22503657 heartbeat IPC: 4 cumulative IPC: 3.999 (Simulation time: 00 hr 54 min 35 sec)
*** Reached end of trace: (5, "traces/canneal_big2.champsimtrace")
*** Reached end of trace: (1, "traces/canneal_big2.champsimtrace")
Heartbeat CPU 5 instructions: 90000001 cycles: 22503805 heartbeat IPC: 4 cumulative IPC: 3.999 (Simulation time: 00 hr 54 min 35 sec)
Heartbeat CPU 1 instructions: 90000001 cycles: 22503810 heartbeat IPC: 4 cumulative IPC: 3.999 (Simulation time: 00 hr 54 min 35 sec)
*** Reached end of trace: (7, "traces/canneal_big0.champsimtrace")
Heartbeat CPU 7 instructions: 60000018 cycles: 23186796 heartbeat IPC: 2.604 cumulative IPC: 2.588 (Simulation time: 00 hr 56 min 13 sec)
*** Reached end of trace: (3, "traces/canneal_big0.champsimtrace")
Heartbeat CPU 3 instructions: 60000018 cycles: 23211204 heartbeat IPC: 2.6 cumulative IPC: 2.585 (Simulation time: 00 hr 56 min 16 sec)
*** Reached end of trace: (2, "traces/canneal_big3.champsimtrace")
*** Reached end of trace: (6, "traces/canneal_big3.champsimtrace")
*** Reached end of trace: (5, "traces/canneal_big2.champsimtrace")
*** Reached end of trace: (1, "traces/canneal_big2.champsimtrace")
*** Reached end of trace: (0, "traces/canneal_big1.champsimtrace")
Heartbeat CPU 0 instructions: 40000006 cycles: 24353960 heartbeat IPC: 1.759 cumulative IPC: 1.642 (Simulation time: 00 hr 59 min 02 sec)
*** Reached end of trace: (4, "traces/canneal_big1.champsimtrace")
Heartbeat CPU 4 instructions: 40000006 cycles: 24373548 heartbeat IPC: 1.755 cumulative IPC: 1.641 (Simulation time: 00 hr 59 min 05 sec)
*** Reached end of trace: (2, "traces/canneal_big3.champsimtrace")
*** Reached end of trace: (6, "traces/canneal_big3.champsimtrace")
Heartbeat CPU 2 instructions: 100000001 cycles: 25003650 heartbeat IPC: 4 cumulative IPC: 3.999 (Simulation time: 01 hr 00 min 32 sec)
Heartbeat CPU 6 instructions: 100000001 cycles: 25003657 heartbeat IPC: 4 cumulative IPC: 3.999 (Simulation time: 01 hr 00 min 32 sec)
*** Reached end of trace: (5, "traces/canneal_big2.champsimtrace")
*** Reached end of trace: (1, "traces/canneal_big2.champsimtrace")
Heartbeat CPU 5 instructions: 100000001 cycles: 25003805 heartbeat IPC: 4 cumulative IPC: 3.999 (Simulation time: 01 hr 00 min 32 sec)
Heartbeat CPU 1 instructions: 100000001 cycles: 25003810 heartbeat IPC: 4 cumulative IPC: 3.999 (Simulation time: 01 hr 00 min 32 sec)
*** Reached end of trace: (7, "traces/canneal_big0.champsimtrace")
*** Reached end of trace: (3, "traces/canneal_big0.champsimtrace")
*** Reached end of trace: (2, "traces/canneal_big3.champsimtrace")
*** Reached end of trace: (6, "traces/canneal_big3.champsimtrace")
*** Reached end of trace: (5, "traces/canneal_big2.champsimtrace")
*** Reached end of trace: (1, "traces/canneal_big2.champsimtrace")
*** Reached end of trace: (7, "traces/canneal_big0.champsimtrace")
Heartbeat CPU 7 instructions: 70000021 cycles: 27027272 heartbeat IPC: 2.604 cumulative IPC: 2.59 (Simulation time: 01 hr 05 min 22 sec)
*** Reached end of trace: (3, "traces/canneal_big0.champsimtrace")
Heartbeat CPU 3 instructions: 70000021 cycles: 27056571 heartbeat IPC: 2.601 cumulative IPC: 2.587 (Simulation time: 01 hr 05 min 26 sec)
*** Reached end of trace: (0, "traces/canneal_big1.champsimtrace")
*** Reached end of trace: (4, "traces/canneal_big1.champsimtrace")
*** Reached end of trace: (2, "traces/canneal_big3.champsimtrace")
*** Reached end of trace: (6, "traces/canneal_big3.champsimtrace")
Heartbeat CPU 2 instructions: 110000001 cycles: 27503650 heartbeat IPC: 4 cumulative IPC: 3.999 (Simulation time: 01 hr 06 min 32 sec)
Heartbeat CPU 6 instructions: 110000001 cycles: 27503657 heartbeat IPC: 4 cumulative IPC: 3.999 (Simulation time: 01 hr 06 min 32 sec)
*** Reached end of trace: (5, "traces/canneal_big2.champsimtrace")
*** Reached end of trace: (1, "traces/canneal_big2.champsimtrace")
Heartbeat CPU 5 instructions: 110000001 cycles: 27503805 heartbeat IPC: 4 cumulative IPC: 3.999 (Simulation time: 01 hr 06 min 32 sec)
Heartbeat CPU 1 instructions: 110000001 cycles: 27503810 heartbeat IPC: 4 cumulative IPC: 3.999 (Simulation time: 01 hr 06 min 32 sec)
*** Reached end of trace: (2, "traces/canneal_big3.champsimtrace")
*** Reached end of trace: (6, "traces/canneal_big3.champsimtrace")
*** Reached end of trace: (5, "traces/canneal_big2.champsimtrace")
*** Reached end of trace: (1, "traces/canneal_big2.champsimtrace")
*** Reached end of trace: (7, "traces/canneal_big0.champsimtrace")
*** Reached end of trace: (3, "traces/canneal_big0.champsimtrace")
*** Reached end of trace: (2, "traces/canneal_big3.champsimtrace")
*** Reached end of trace: (6, "traces/canneal_big3.champsimtrace")
Heartbeat CPU 2 instructions: 120000001 cycles: 30003650 heartbeat IPC: 4 cumulative IPC: 4 (Simulation time: 01 hr 12 min 24 sec)
Heartbeat CPU 6 instructions: 120000001 cycles: 30003657 heartbeat IPC: 4 cumulative IPC: 4 (Simulation time: 01 hr 12 min 24 sec)
*** Reached end of trace: (5, "traces/canneal_big2.champsimtrace")
*** Reached end of trace: (1, "traces/canneal_big2.champsimtrace")
Heartbeat CPU 5 instructions: 120000001 cycles: 30003805 heartbeat IPC: 4 cumulative IPC: 3.999 (Simulation time: 01 hr 12 min 24 sec)
Heartbeat CPU 1 instructions: 120000001 cycles: 30003810 heartbeat IPC: 4 cumulative IPC: 3.999 (Simulation time: 01 hr 12 min 24 sec)
*** Reached end of trace: (0, "traces/canneal_big1.champsimtrace")
Warmup finished CPU 0 instructions: 50000000 cycles: 30038869 cumulative IPC: 1.665 (Simulation time: 01 hr 12 min 29 sec)
Heartbeat CPU 0 instructions: 50000008 cycles: 30038891 heartbeat IPC: 1.759 cumulative IPC: 1.665 (Simulation time: 01 hr 12 min 29 sec)
*** Reached end of trace: (4, "traces/canneal_big1.champsimtrace")
Warmup finished CPU 4 instructions: 50000000 cycles: 30074214 cumulative IPC: 1.663 (Simulation time: 01 hr 12 min 34 sec)
Warmup complete CPU 7 instructions: 78077539 cycles: 30074214 cumulative IPC: 2.596 (Simulation time: 01 hr 12 min 34 sec)
Warmup complete CPU 6 instructions: 120282229 cycles: 30074214 cumulative IPC: 4 (Simulation time: 01 hr 12 min 34 sec)
Warmup complete CPU 5 instructions: 120281637 cycles: 30074214 cumulative IPC: 3.999 (Simulation time: 01 hr 12 min 34 sec)
Warmup complete CPU 4 instructions: 50000000 cycles: 30074214 cumulative IPC: 1.663 (Simulation time: 01 hr 12 min 34 sec)
Warmup complete CPU 3 instructions: 78000034 cycles: 30074214 cumulative IPC: 2.594 (Simulation time: 01 hr 12 min 34 sec)
Warmup complete CPU 2 instructions: 120282257 cycles: 30074214 cumulative IPC: 4 (Simulation time: 01 hr 12 min 34 sec)
Warmup complete CPU 1 instructions: 120281617 cycles: 30074214 cumulative IPC: 3.999 (Simulation time: 01 hr 12 min 34 sec)
Warmup complete CPU 0 instructions: 50059012 cycles: 30074214 cumulative IPC: 1.665 (Simulation time: 01 hr 12 min 34 sec)
Heartbeat CPU 4 instructions: 50000008 cycles: 30074718 heartbeat IPC: 1.754 cumulative IPC: 0.01587 (Simulation time: 01 hr 12 min 34 sec)
*** Reached end of trace: (3, "traces/canneal_big0.champsimtrace")
Heartbeat CPU 3 instructions: 80000021 cycles: 30817911 heartbeat IPC: 2.659 cumulative IPC: 2.689 (Simulation time: 01 hr 14 min 18 sec)
*** Reached end of trace: (7, "traces/canneal_big0.champsimtrace")
Heartbeat CPU 7 instructions: 80000024 cycles: 30831789 heartbeat IPC: 2.628 cumulative IPC: 2.538 (Simulation time: 01 hr 14 min 20 sec)
*** Reached end of trace: (2, "traces/canneal_big3.champsimtrace")
*** Reached end of trace: (6, "traces/canneal_big3.champsimtrace")
*** Reached end of trace: (5, "traces/canneal_big2.champsimtrace")
*** Reached end of trace: (1, "traces/canneal_big2.champsimtrace")
*** Reached end of trace: (2, "traces/canneal_big3.champsimtrace")
*** Reached end of trace: (6, "traces/canneal_big3.champsimtrace")
Heartbeat CPU 2 instructions: 130000001 cycles: 32503650 heartbeat IPC: 4 cumulative IPC: 4 (Simulation time: 01 hr 18 min 12 sec)
Heartbeat CPU 6 instructions: 130000001 cycles: 32503657 heartbeat IPC: 4 cumulative IPC: 4 (Simulation time: 01 hr 18 min 12 sec)
*** Reached end of trace: (5, "traces/canneal_big2.champsimtrace")
*** Reached end of trace: (1, "traces/canneal_big2.champsimtrace")
Heartbeat CPU 5 instructions: 130000001 cycles: 32503805 heartbeat IPC: 4 cumulative IPC: 4 (Simulation time: 01 hr 18 min 12 sec)
Heartbeat CPU 1 instructions: 130000001 cycles: 32503810 heartbeat IPC: 4 cumulative IPC: 4 (Simulation time: 01 hr 18 min 12 sec)
*** Reached end of trace: (3, "traces/canneal_big0.champsimtrace")
*** Reached end of trace: (7, "traces/canneal_big0.champsimtrace")
*** Reached end of trace: (2, "traces/canneal_big3.champsimtrace")
*** Reached end of trace: (6, "traces/canneal_big3.champsimtrace")
*** Reached end of trace: (5, "traces/canneal_big2.champsimtrace")
*** Reached end of trace: (1, "traces/canneal_big2.champsimtrace")
*** Reached end of trace: (2, "traces/canneal_big3.champsimtrace")
*** Reached end of trace: (6, "traces/canneal_big3.champsimtrace")
Heartbeat CPU 2 instructions: 140000001 cycles: 35003650 heartbeat IPC: 4 cumulative IPC: 4 (Simulation time: 01 hr 24 min 02 sec)
Heartbeat CPU 6 instructions: 140000001 cycles: 35003657 heartbeat IPC: 4 cumulative IPC: 4 (Simulation time: 01 hr 24 min 02 sec)
*** Reached end of trace: (5, "traces/canneal_big2.champsimtrace")
*** Reached end of trace: (1, "traces/canneal_big2.champsimtrace")
Heartbeat CPU 5 instructions: 140000001 cycles: 35003805 heartbeat IPC: 4 cumulative IPC: 4 (Simulation time: 01 hr 24 min 02 sec)
Heartbeat CPU 1 instructions: 140000001 cycles: 35003810 heartbeat IPC: 4 cumulative IPC: 4 (Simulation time: 01 hr 24 min 02 sec)
*** Reached end of trace: (3, "traces/canneal_big0.champsimtrace")
Heartbeat CPU 3 instructions: 90000022 cycles: 35204149 heartbeat IPC: 2.28 cumulative IPC: 2.339 (Simulation time: 01 hr 24 min 30 sec)
*** Reached end of trace: (7, "traces/canneal_big0.champsimtrace")
Heartbeat CPU 7 instructions: 90000027 cycles: 35292165 heartbeat IPC: 2.242 cumulative IPC: 2.285 (Simulation time: 01 hr 24 min 43 sec)
*** Reached end of trace: (2, "traces/canneal_big3.champsimtrace")
*** Reached end of trace: (6, "traces/canneal_big3.champsimtrace")
*** Reached end of trace: (5, "traces/canneal_big2.champsimtrace")
*** Reached end of trace: (1, "traces/canneal_big2.champsimtrace")
*** Reached end of trace: (3, "traces/canneal_big0.champsimtrace")
*** Reached end of trace: (7, "traces/canneal_big0.champsimtrace")
*** Reached end of trace: (2, "traces/canneal_big3.champsimtrace")
*** Reached end of trace: (6, "traces/canneal_big3.champsimtrace")
Heartbeat CPU 2 instructions: 150000001 cycles: 37503650 heartbeat IPC: 4 cumulative IPC: 4 (Simulation time: 01 hr 29 min 52 sec)
Heartbeat CPU 6 instructions: 150000001 cycles: 37503657 heartbeat IPC: 4 cumulative IPC: 4 (Simulation time: 01 hr 29 min 52 sec)
*** Reached end of trace: (5, "traces/canneal_big2.champsimtrace")
*** Reached end of trace: (1, "traces/canneal_big2.champsimtrace")
Heartbeat CPU 5 instructions: 150000001 cycles: 37503805 heartbeat IPC: 4 cumulative IPC: 4 (Simulation time: 01 hr 29 min 52 sec)
Heartbeat CPU 1 instructions: 150000001 cycles: 37503810 heartbeat IPC: 4 cumulative IPC: 4 (Simulation time: 01 hr 29 min 52 sec)
*** Reached end of trace: (2, "traces/canneal_big3.champsimtrace")
*** Reached end of trace: (6, "traces/canneal_big3.champsimtrace")
*** Reached end of trace: (5, "traces/canneal_big2.champsimtrace")
*** Reached end of trace: (1, "traces/canneal_big2.champsimtrace")
*** Reached end of trace: (3, "traces/canneal_big0.champsimtrace")
Heartbeat CPU 3 instructions: 100000025 cycles: 39404044 heartbeat IPC: 2.381 cumulative IPC: 2.358 (Simulation time: 01 hr 34 min 19 sec)
*** Reached end of trace: (7, "traces/canneal_big0.champsimtrace")
Heartbeat CPU 7 instructions: 100000030 cycles: 39527516 heartbeat IPC: 2.361 cumulative IPC: 2.319 (Simulation time: 01 hr 34 min 37 sec)
*** Reached end of trace: (2, "traces/canneal_big3.champsimtrace")
*** Reached end of trace: (6, "traces/canneal_big3.champsimtrace")
Heartbeat CPU 2 instructions: 160000001 cycles: 40003650 heartbeat IPC: 4 cumulative IPC: 4 (Simulation time: 01 hr 35 min 46 sec)
Heartbeat CPU 6 instructions: 160000001 cycles: 40003657 heartbeat IPC: 4 cumulative IPC: 4 (Simulation time: 01 hr 35 min 46 sec)
*** Reached end of trace: (5, "traces/canneal_big2.champsimtrace")
*** Reached end of trace: (1, "traces/canneal_big2.champsimtrace")
Heartbeat CPU 5 instructions: 160000001 cycles: 40003805 heartbeat IPC: 4 cumulative IPC: 4 (Simulation time: 01 hr 35 min 46 sec)
Heartbeat CPU 1 instructions: 160000001 cycles: 40003810 heartbeat IPC: 4 cumulative IPC: 4 (Simulation time: 01 hr 35 min 46 sec)
*** Reached end of trace: (2, "traces/canneal_big3.champsimtrace")
*** Reached end of trace: (6, "traces/canneal_big3.champsimtrace")
*** Reached end of trace: (5, "traces/canneal_big2.champsimtrace")
*** Reached end of trace: (1, "traces/canneal_big2.champsimtrace")
*** Reached end of trace: (3, "traces/canneal_big0.champsimtrace")
*** Reached end of trace: (7, "traces/canneal_big0.champsimtrace")
*** Reached end of trace: (2, "traces/canneal_big3.champsimtrace")
*** Reached end of trace: (6, "traces/canneal_big3.champsimtrace")
Heartbeat CPU 2 instructions: 170000001 cycles: 42503650 heartbeat IPC: 4 cumulative IPC: 4 (Simulation time: 01 hr 41 min 37 sec)
Heartbeat CPU 6 instructions: 170000001 cycles: 42503657 heartbeat IPC: 4 cumulative IPC: 4 (Simulation time: 01 hr 41 min 37 sec)
*** Reached end of trace: (5, "traces/canneal_big2.champsimtrace")
*** Reached end of trace: (1, "traces/canneal_big2.champsimtrace")
Heartbeat CPU 5 instructions: 170000001 cycles: 42503805 heartbeat IPC: 4 cumulative IPC: 4 (Simulation time: 01 hr 41 min 37 sec)
Heartbeat CPU 1 instructions: 170000001 cycles: 42503810 heartbeat IPC: 4 cumulative IPC: 4 (Simulation time: 01 hr 41 min 37 sec)
*** Reached end of trace: (3, "traces/canneal_big0.champsimtrace")
Heartbeat CPU 3 instructions: 110000028 cycles: 43448846 heartbeat IPC: 2.472 cumulative IPC: 2.393 (Simulation time: 01 hr 43 min 50 sec)
*** Reached end of trace: (2, "traces/canneal_big3.champsimtrace")
*** Reached end of trace: (6, "traces/canneal_big3.champsimtrace")
*** Reached end of trace: (5, "traces/canneal_big2.champsimtrace")
*** Reached end of trace: (1, "traces/canneal_big2.champsimtrace")
*** Reached end of trace: (7, "traces/canneal_big0.champsimtrace")
Heartbeat CPU 7 instructions: 110000033 cycles: 43755092 heartbeat IPC: 2.365 cumulative IPC: 2.333 (Simulation time: 01 hr 44 min 34 sec)
*** Reached end of trace: (0, "traces/canneal_big1.champsimtrace")
*** Reached end of trace: (4, "traces/canneal_big1.champsimtrace")
*** Reached end of trace: (2, "traces/canneal_big3.champsimtrace")
*** Reached end of trace: (6, "traces/canneal_big3.champsimtrace")
Heartbeat CPU 2 instructions: 180000001 cycles: 45003650 heartbeat IPC: 4 cumulative IPC: 4 (Simulation time: 01 hr 47 min 29 sec)
Heartbeat CPU 6 instructions: 180000001 cycles: 45003657 heartbeat IPC: 4 cumulative IPC: 4 (Simulation time: 01 hr 47 min 29 sec)
*** Reached end of trace: (5, "traces/canneal_big2.champsimtrace")
*** Reached end of trace: (1, "traces/canneal_big2.champsimtrace")
Heartbeat CPU 5 instructions: 180000001 cycles: 45003805 heartbeat IPC: 4 cumulative IPC: 4 (Simulation time: 01 hr 47 min 29 sec)
Heartbeat CPU 1 instructions: 180000001 cycles: 45003810 heartbeat IPC: 4 cumulative IPC: 4 (Simulation time: 01 hr 47 min 29 sec)
*** Reached end of trace: (3, "traces/canneal_big0.champsimtrace")
*** Reached end of trace: (7, "traces/canneal_big0.champsimtrace")
*** Reached end of trace: (2, "traces/canneal_big3.champsimtrace")
*** Reached end of trace: (6, "traces/canneal_big3.champsimtrace")
*** Reached end of trace: (5, "traces/canneal_big2.champsimtrace")
*** Reached end of trace: (1, "traces/canneal_big2.champsimtrace")
*** Reached end of trace: (2, "traces/canneal_big3.champsimtrace")
*** Reached end of trace: (6, "traces/canneal_big3.champsimtrace")
Heartbeat CPU 2 instructions: 190000001 cycles: 47503650 heartbeat IPC: 4 cumulative IPC: 4 (Simulation time: 01 hr 53 min 22 sec)
Heartbeat CPU 6 instructions: 190000001 cycles: 47503657 heartbeat IPC: 4 cumulative IPC: 4 (Simulation time: 01 hr 53 min 22 sec)
*** Reached end of trace: (5, "traces/canneal_big2.champsimtrace")
*** Reached end of trace: (1, "traces/canneal_big2.champsimtrace")
Heartbeat CPU 5 instructions: 190000001 cycles: 47503805 heartbeat IPC: 4 cumulative IPC: 4 (Simulation time: 01 hr 53 min 22 sec)
Heartbeat CPU 1 instructions: 190000001 cycles: 47503810 heartbeat IPC: 4 cumulative IPC: 4 (Simulation time: 01 hr 53 min 22 sec)
*** Reached end of trace: (3, "traces/canneal_big0.champsimtrace")
Heartbeat CPU 3 instructions: 120000028 cycles: 47504977 heartbeat IPC: 2.465 cumulative IPC: 2.41 (Simulation time: 01 hr 53 min 22 sec)
*** Reached end of trace: (7, "traces/canneal_big0.champsimtrace")
Heartbeat CPU 7 instructions: 120000033 cycles: 48010990 heartbeat IPC: 2.35 cumulative IPC: 2.337 (Simulation time: 01 hr 54 min 34 sec)
*** Reached end of trace: (2, "traces/canneal_big3.champsimtrace")
*** Reached end of trace: (6, "traces/canneal_big3.champsimtrace")
*** Reached end of trace: (5, "traces/canneal_big2.champsimtrace")
*** Reached end of trace: (1, "traces/canneal_big2.champsimtrace")
*** Reached end of trace: (3, "traces/canneal_big0.champsimtrace")
*** Reached end of trace: (2, "traces/canneal_big3.champsimtrace")
*** Reached end of trace: (6, "traces/canneal_big3.champsimtrace")
Heartbeat CPU 2 instructions: 200000001 cycles: 50003650 heartbeat IPC: 4 cumulative IPC: 4 (Simulation time: 01 hr 59 min 15 sec)
Heartbeat CPU 6 instructions: 200000001 cycles: 50003657 heartbeat IPC: 4 cumulative IPC: 4 (Simulation time: 01 hr 59 min 15 sec)
*** Reached end of trace: (5, "traces/canneal_big2.champsimtrace")
*** Reached end of trace: (1, "traces/canneal_big2.champsimtrace")
Heartbeat CPU 5 instructions: 200000001 cycles: 50003805 heartbeat IPC: 4 cumulative IPC: 4 (Simulation time: 01 hr 59 min 15 sec)
Heartbeat CPU 1 instructions: 200000001 cycles: 50003810 heartbeat IPC: 4 cumulative IPC: 4 (Simulation time: 01 hr 59 min 15 sec)
*** Reached end of trace: (7, "traces/canneal_big0.champsimtrace")
*** Reached end of trace: (2, "traces/canneal_big3.champsimtrace")
*** Reached end of trace: (6, "traces/canneal_big3.champsimtrace")
*** Reached end of trace: (5, "traces/canneal_big2.champsimtrace")
*** Reached end of trace: (1, "traces/canneal_big2.champsimtrace")
*** Reached end of trace: (3, "traces/canneal_big0.champsimtrace")
Heartbeat CPU 3 instructions: 130000031 cycles: 51584911 heartbeat IPC: 2.451 cumulative IPC: 2.417 (Simulation time: 02 hr 02 min 56 sec)
*** Reached end of trace: (7, "traces/canneal_big0.champsimtrace")
Heartbeat CPU 7 instructions: 130000036 cycles: 52286847 heartbeat IPC: 2.339 cumulative IPC: 2.338 (Simulation time: 02 hr 04 min 34 sec)
*** Reached end of trace: (2, "traces/canneal_big3.champsimtrace")
*** Reached end of trace: (6, "traces/canneal_big3.champsimtrace")
Heartbeat CPU 2 instructions: 210000001 cycles: 52503650 heartbeat IPC: 4 cumulative IPC: 4 (Simulation time: 02 hr 05 min 05 sec)
Heartbeat CPU 6 instructions: 210000001 cycles: 52503657 heartbeat IPC: 4 cumulative IPC: 4 (Simulation time: 02 hr 05 min 05 sec)
*** Reached end of trace: (5, "traces/canneal_big2.champsimtrace")
*** Reached end of trace: (1, "traces/canneal_big2.champsimtrace")
Heartbeat CPU 5 instructions: 210000001 cycles: 52503805 heartbeat IPC: 4 cumulative IPC: 4 (Simulation time: 02 hr 05 min 05 sec)
Heartbeat CPU 1 instructions: 210000001 cycles: 52503810 heartbeat IPC: 4 cumulative IPC: 4 (Simulation time: 02 hr 05 min 05 sec)
*** Reached end of trace: (3, "traces/canneal_big0.champsimtrace")
*** Reached end of trace: (2, "traces/canneal_big3.champsimtrace")
*** Reached end of trace: (6, "traces/canneal_big3.champsimtrace")
*** Reached end of trace: (5, "traces/canneal_big2.champsimtrace")
*** Reached end of trace: (1, "traces/canneal_big2.champsimtrace")
*** Reached end of trace: (7, "traces/canneal_big0.champsimtrace")
*** Reached end of trace: (2, "traces/canneal_big3.champsimtrace")
*** Reached end of trace: (6, "traces/canneal_big3.champsimtrace")
Heartbeat CPU 2 instructions: 220000001 cycles: 55003650 heartbeat IPC: 4 cumulative IPC: 4 (Simulation time: 02 hr 10 min 55 sec)
Heartbeat CPU 6 instructions: 220000001 cycles: 55003657 heartbeat IPC: 4 cumulative IPC: 4 (Simulation time: 02 hr 10 min 55 sec)
*** Reached end of trace: (5, "traces/canneal_big2.champsimtrace")
*** Reached end of trace: (1, "traces/canneal_big2.champsimtrace")
Heartbeat CPU 5 instructions: 220000001 cycles: 55003805 heartbeat IPC: 4 cumulative IPC: 4 (Simulation time: 02 hr 10 min 55 sec)
Heartbeat CPU 1 instructions: 220000001 cycles: 55003810 heartbeat IPC: 4 cumulative IPC: 4 (Simulation time: 02 hr 10 min 55 sec)
Simulation finished CPU 6 instructions: 100000000 cycles: 25000000 cumulative IPC: 4 (Simulation time: 02 hr 11 min 05 sec)
Simulation finished CPU 5 instructions: 100000000 cycles: 25000000 cumulative IPC: 4 (Simulation time: 02 hr 11 min 05 sec)
Simulation finished CPU 2 instructions: 100000000 cycles: 25000000 cumulative IPC: 4 (Simulation time: 02 hr 11 min 05 sec)
Simulation finished CPU 1 instructions: 100000000 cycles: 25000000 cumulative IPC: 4 (Simulation time: 02 hr 11 min 05 sec)
*** Reached end of trace: (3, "traces/canneal_big0.champsimtrace")
Heartbeat CPU 3 instructions: 140000034 cycles: 55658017 heartbeat IPC: 2.455 cumulative IPC: 2.423 (Simulation time: 02 hr 12 min 27 sec)
*** Reached end of trace: (2, "traces/canneal_big3.champsimtrace")
*** Reached end of trace: (6, "traces/canneal_big3.champsimtrace")
*** Reached end of trace: (5, "traces/canneal_big2.champsimtrace")
*** Reached end of trace: (1, "traces/canneal_big2.champsimtrace")
*** Reached end of trace: (7, "traces/canneal_big0.champsimtrace")
Heartbeat CPU 7 instructions: 140000039 cycles: 56554912 heartbeat IPC: 2.343 cumulative IPC: 2.338 (Simulation time: 02 hr 14 min 33 sec)
*** Reached end of trace: (2, "traces/canneal_big3.champsimtrace")
*** Reached end of trace: (6, "traces/canneal_big3.champsimtrace")
Heartbeat CPU 2 instructions: 230000001 cycles: 57503650 heartbeat IPC: 4 cumulative IPC: 4 (Simulation time: 02 hr 16 min 46 sec)
Heartbeat CPU 6 instructions: 230000001 cycles: 57503657 heartbeat IPC: 4 cumulative IPC: 4 (Simulation time: 02 hr 16 min 46 sec)
*** Reached end of trace: (5, "traces/canneal_big2.champsimtrace")
*** Reached end of trace: (1, "traces/canneal_big2.champsimtrace")
Heartbeat CPU 5 instructions: 230000001 cycles: 57503805 heartbeat IPC: 4 cumulative IPC: 4 (Simulation time: 02 hr 16 min 46 sec)
Heartbeat CPU 1 instructions: 230000001 cycles: 57503810 heartbeat IPC: 4 cumulative IPC: 4 (Simulation time: 02 hr 16 min 46 sec)
*** Reached end of trace: (3, "traces/canneal_big0.champsimtrace")
*** Reached end of trace: (7, "traces/canneal_big0.champsimtrace")
*** Reached end of trace: (2, "traces/canneal_big3.champsimtrace")
*** Reached end of trace: (6, "traces/canneal_big3.champsimtrace")
*** Reached end of trace: (5, "traces/canneal_big2.champsimtrace")
*** Reached end of trace: (1, "traces/canneal_big2.champsimtrace")
*** Reached end of trace: (0, "traces/canneal_big1.champsimtrace")
*** Reached end of trace: (4, "traces/canneal_big1.champsimtrace")
Heartbeat CPU 0 instructions: 60000010 cycles: 59466173 heartbeat IPC: 0.3398 cumulative IPC: 0.3382 (Simulation time: 02 hr 21 min 21 sec)
Heartbeat CPU 4 instructions: 60000010 cycles: 59466174 heartbeat IPC: 0.3402 cumulative IPC: 0.3402 (Simulation time: 02 hr 21 min 21 sec)
*** Reached end of trace: (3, "traces/canneal_big0.champsimtrace")
Heartbeat CPU 3 instructions: 150000037 cycles: 59720460 heartbeat IPC: 2.462 cumulative IPC: 2.429 (Simulation time: 02 hr 21 min 56 sec)
*** Reached end of trace: (2, "traces/canneal_big3.champsimtrace")
*** Reached end of trace: (6, "traces/canneal_big3.champsimtrace")
Heartbeat CPU 2 instructions: 240000001 cycles: 60003650 heartbeat IPC: 4 cumulative IPC: 4 (Simulation time: 02 hr 22 min 36 sec)
Heartbeat CPU 6 instructions: 240000001 cycles: 60003657 heartbeat IPC: 4 cumulative IPC: 4 (Simulation time: 02 hr 22 min 36 sec)
*** Reached end of trace: (5, "traces/canneal_big2.champsimtrace")
*** Reached end of trace: (1, "traces/canneal_big2.champsimtrace")
Heartbeat CPU 5 instructions: 240000001 cycles: 60003805 heartbeat IPC: 4 cumulative IPC: 4 (Simulation time: 02 hr 22 min 36 sec)
Heartbeat CPU 1 instructions: 240000001 cycles: 60003810 heartbeat IPC: 4 cumulative IPC: 4 (Simulation time: 02 hr 22 min 36 sec)
*** Reached end of trace: (7, "traces/canneal_big0.champsimtrace")
Heartbeat CPU 7 instructions: 150000042 cycles: 60837943 heartbeat IPC: 2.335 cumulative IPC: 2.338 (Simulation time: 02 hr 24 min 32 sec)
*** Reached end of trace: (2, "traces/canneal_big3.champsimtrace")
*** Reached end of trace: (6, "traces/canneal_big3.champsimtrace")
*** Reached end of trace: (5, "traces/canneal_big2.champsimtrace")
*** Reached end of trace: (1, "traces/canneal_big2.champsimtrace")
*** Reached end of trace: (3, "traces/canneal_big0.champsimtrace")
*** Reached end of trace: (2, "traces/canneal_big3.champsimtrace")
*** Reached end of trace: (6, "traces/canneal_big3.champsimtrace")
Heartbeat CPU 2 instructions: 250000001 cycles: 62503650 heartbeat IPC: 4 cumulative IPC: 4 (Simulation time: 02 hr 28 min 24 sec)
Heartbeat CPU 6 instructions: 250000001 cycles: 62503657 heartbeat IPC: 4 cumulative IPC: 4 (Simulation time: 02 hr 28 min 24 sec)
*** Reached end of trace: (5, "traces/canneal_big2.champsimtrace")
*** Reached end of trace: (1, "traces/canneal_big2.champsimtrace")
Heartbeat CPU 5 instructions: 250000001 cycles: 62503805 heartbeat IPC: 4 cumulative IPC: 4 (Simulation time: 02 hr 28 min 24 sec)
Heartbeat CPU 1 instructions: 250000001 cycles: 62503810 heartbeat IPC: 4 cumulative IPC: 4 (Simulation time: 02 hr 28 min 24 sec)
*** Reached end of trace: (7, "traces/canneal_big0.champsimtrace")
*** Reached end of trace: (2, "traces/canneal_big3.champsimtrace")
*** Reached end of trace: (6, "traces/canneal_big3.champsimtrace")
*** Reached end of trace: (5, "traces/canneal_big2.champsimtrace")
*** Reached end of trace: (1, "traces/canneal_big2.champsimtrace")
*** Reached end of trace: (3, "traces/canneal_big0.champsimtrace")
Heartbeat CPU 3 instructions: 160000040 cycles: 63806504 heartbeat IPC: 2.447 cumulative IPC: 2.431 (Simulation time: 02 hr 31 min 27 sec)
*** Reached end of trace: (2, "traces/canneal_big3.champsimtrace")
*** Reached end of trace: (6, "traces/canneal_big3.champsimtrace")
Heartbeat CPU 2 instructions: 260000001 cycles: 65003650 heartbeat IPC: 4 cumulative IPC: 4 (Simulation time: 02 hr 34 min 13 sec)
Heartbeat CPU 6 instructions: 260000001 cycles: 65003657 heartbeat IPC: 4 cumulative IPC: 4 (Simulation time: 02 hr 34 min 13 sec)
*** Reached end of trace: (5, "traces/canneal_big2.champsimtrace")
*** Reached end of trace: (1, "traces/canneal_big2.champsimtrace")
Heartbeat CPU 5 instructions: 260000001 cycles: 65003805 heartbeat IPC: 4 cumulative IPC: 4 (Simulation time: 02 hr 34 min 13 sec)
Heartbeat CPU 1 instructions: 260000001 cycles: 65003810 heartbeat IPC: 4 cumulative IPC: 4 (Simulation time: 02 hr 34 min 13 sec)
*** Reached end of trace: (7, "traces/canneal_big0.champsimtrace")
Heartbeat CPU 7 instructions: 160000045 cycles: 65126734 heartbeat IPC: 2.332 cumulative IPC: 2.337 (Simulation time: 02 hr 34 min 30 sec)
*** Reached end of trace: (3, "traces/canneal_big0.champsimtrace")
*** Reached end of trace: (2, "traces/canneal_big3.champsimtrace")
*** Reached end of trace: (6, "traces/canneal_big3.champsimtrace")
*** Reached end of trace: (5, "traces/canneal_big2.champsimtrace")
*** Reached end of trace: (1, "traces/canneal_big2.champsimtrace")
*** Reached end of trace: (7, "traces/canneal_big0.champsimtrace")
*** Reached end of trace: (2, "traces/canneal_big3.champsimtrace")
*** Reached end of trace: (6, "traces/canneal_big3.champsimtrace")
Heartbeat CPU 2 instructions: 270000001 cycles: 67503650 heartbeat IPC: 4 cumulative IPC: 4 (Simulation time: 02 hr 40 min 03 sec)
Heartbeat CPU 6 instructions: 270000001 cycles: 67503657 heartbeat IPC: 4 cumulative IPC: 4 (Simulation time: 02 hr 40 min 03 sec)
*** Reached end of trace: (5, "traces/canneal_big2.champsimtrace")
*** Reached end of trace: (1, "traces/canneal_big2.champsimtrace")
Heartbeat CPU 5 instructions: 270000001 cycles: 67503805 heartbeat IPC: 4 cumulative IPC: 4 (Simulation time: 02 hr 40 min 03 sec)
Heartbeat CPU 1 instructions: 270000001 cycles: 67503810 heartbeat IPC: 4 cumulative IPC: 4 (Simulation time: 02 hr 40 min 03 sec)
*** Reached end of trace: (3, "traces/canneal_big0.champsimtrace")
Heartbeat CPU 3 instructions: 170000043 cycles: 67876145 heartbeat IPC: 2.457 cumulative IPC: 2.434 (Simulation time: 02 hr 40 min 55 sec)
*** Reached end of trace: (2, "traces/canneal_big3.champsimtrace")
*** Reached end of trace: (6, "traces/canneal_big3.champsimtrace")
*** Reached end of trace: (5, "traces/canneal_big2.champsimtrace")
*** Reached end of trace: (1, "traces/canneal_big2.champsimtrace")
*** Reached end of trace: (7, "traces/canneal_big0.champsimtrace")
Heartbeat CPU 7 instructions: 170000048 cycles: 69427665 heartbeat IPC: 2.325 cumulative IPC: 2.336 (Simulation time: 02 hr 44 min 31 sec)
*** Reached end of trace: (3, "traces/canneal_big0.champsimtrace")
*** Reached end of trace: (2, "traces/canneal_big3.champsimtrace")
*** Reached end of trace: (6, "traces/canneal_big3.champsimtrace")
Heartbeat CPU 2 instructions: 280000001 cycles: 70003650 heartbeat IPC: 4 cumulative IPC: 4 (Simulation time: 02 hr 45 min 52 sec)
Heartbeat CPU 6 instructions: 280000001 cycles: 70003657 heartbeat IPC: 4 cumulative IPC: 4 (Simulation time: 02 hr 45 min 52 sec)
*** Reached end of trace: (5, "traces/canneal_big2.champsimtrace")
*** Reached end of trace: (1, "traces/canneal_big2.champsimtrace")
Heartbeat CPU 5 instructions: 280000001 cycles: 70003805 heartbeat IPC: 4 cumulative IPC: 4 (Simulation time: 02 hr 45 min 52 sec)
Heartbeat CPU 1 instructions: 280000001 cycles: 70003810 heartbeat IPC: 4 cumulative IPC: 4 (Simulation time: 02 hr 45 min 52 sec)
Simulation finished CPU 3 instructions: 100000000 cycles: 41140704 cumulative IPC: 2.431 (Simulation time: 02 hr 48 min 40 sec)
*** Reached end of trace: (2, "traces/canneal_big3.champsimtrace")
*** Reached end of trace: (6, "traces/canneal_big3.champsimtrace")
*** Reached end of trace: (5, "traces/canneal_big2.champsimtrace")
*** Reached end of trace: (1, "traces/canneal_big2.champsimtrace")
*** Reached end of trace: (7, "traces/canneal_big0.champsimtrace")
*** Reached end of trace: (3, "traces/canneal_big0.champsimtrace")
Heartbeat CPU 3 instructions: 180000044 cycles: 71950824 heartbeat IPC: 2.454 cumulative IPC: 2.436 (Simulation time: 02 hr 50 min 24 sec)
*** Reached end of trace: (2, "traces/canneal_big3.champsimtrace")
*** Reached end of trace: (6, "traces/canneal_big3.champsimtrace")
Heartbeat CPU 2 instructions: 290000001 cycles: 72503650 heartbeat IPC: 4 cumulative IPC: 4 (Simulation time: 02 hr 51 min 41 sec)
Heartbeat CPU 6 instructions: 290000001 cycles: 72503657 heartbeat IPC: 4 cumulative IPC: 4 (Simulation time: 02 hr 51 min 41 sec)
*** Reached end of trace: (5, "traces/canneal_big2.champsimtrace")
*** Reached end of trace: (1, "traces/canneal_big2.champsimtrace")
Heartbeat CPU 5 instructions: 290000001 cycles: 72503805 heartbeat IPC: 4 cumulative IPC: 4 (Simulation time: 02 hr 51 min 41 sec)
Heartbeat CPU 1 instructions: 290000001 cycles: 72503810 heartbeat IPC: 4 cumulative IPC: 4 (Simulation time: 02 hr 51 min 41 sec)
Simulation finished CPU 7 instructions: 100000000 cycles: 42896959 cumulative IPC: 2.331 (Simulation time: 02 hr 52 min 46 sec)
*** Reached end of trace: (7, "traces/canneal_big0.champsimtrace")
Heartbeat CPU 7 instructions: 180000049 cycles: 73723773 heartbeat IPC: 2.328 cumulative IPC: 2.335 (Simulation time: 02 hr 54 min 31 sec)
*** Reached end of trace: (2, "traces/canneal_big3.champsimtrace")
*** Reached end of trace: (6, "traces/canneal_big3.champsimtrace")
*** Reached end of trace: (5, "traces/canneal_big2.champsimtrace")
*** Reached end of trace: (1, "traces/canneal_big2.champsimtrace")
*** Reached end of trace: (3, "traces/canneal_big0.champsimtrace")
*** Reached end of trace: (0, "traces/canneal_big1.champsimtrace")
*** Reached end of trace: (4, "traces/canneal_big1.champsimtrace")
*** Reached end of trace: (2, "traces/canneal_big3.champsimtrace")
*** Reached end of trace: (6, "traces/canneal_big3.champsimtrace")
Heartbeat CPU 2 instructions: 300000001 cycles: 75003650 heartbeat IPC: 4 cumulative IPC: 4 (Simulation time: 02 hr 57 min 30 sec)
Heartbeat CPU 6 instructions: 300000001 cycles: 75003657 heartbeat IPC: 4 cumulative IPC: 4 (Simulation time: 02 hr 57 min 30 sec)
*** Reached end of trace: (5, "traces/canneal_big2.champsimtrace")
*** Reached end of trace: (1, "traces/canneal_big2.champsimtrace")
Heartbeat CPU 5 instructions: 300000001 cycles: 75003805 heartbeat IPC: 4 cumulative IPC: 4 (Simulation time: 02 hr 57 min 30 sec)
Heartbeat CPU 1 instructions: 300000001 cycles: 75003810 heartbeat IPC: 4 cumulative IPC: 4 (Simulation time: 02 hr 57 min 30 sec)
*** Reached end of trace: (7, "traces/canneal_big0.champsimtrace")
*** Reached end of trace: (3, "traces/canneal_big0.champsimtrace")
Heartbeat CPU 3 instructions: 190000047 cycles: 76030095 heartbeat IPC: 2.451 cumulative IPC: 2.437 (Simulation time: 02 hr 59 min 53 sec)
*** Reached end of trace: (2, "traces/canneal_big3.champsimtrace")
*** Reached end of trace: (6, "traces/canneal_big3.champsimtrace")
*** Reached end of trace: (5, "traces/canneal_big2.champsimtrace")
*** Reached end of trace: (1, "traces/canneal_big2.champsimtrace")
*** Reached end of trace: (2, "traces/canneal_big3.champsimtrace")
*** Reached end of trace: (6, "traces/canneal_big3.champsimtrace")
Heartbeat CPU 2 instructions: 310000001 cycles: 77503650 heartbeat IPC: 4 cumulative IPC: 4 (Simulation time: 03 hr 03 min 17 sec)
Heartbeat CPU 6 instructions: 310000001 cycles: 77503657 heartbeat IPC: 4 cumulative IPC: 4 (Simulation time: 03 hr 03 min 17 sec)
*** Reached end of trace: (5, "traces/canneal_big2.champsimtrace")
*** Reached end of trace: (1, "traces/canneal_big2.champsimtrace")
Heartbeat CPU 5 instructions: 310000001 cycles: 77503805 heartbeat IPC: 4 cumulative IPC: 4 (Simulation time: 03 hr 03 min 17 sec)
Heartbeat CPU 1 instructions: 310000001 cycles: 77503810 heartbeat IPC: 4 cumulative IPC: 4 (Simulation time: 03 hr 03 min 17 sec)
*** Reached end of trace: (7, "traces/canneal_big0.champsimtrace")
Heartbeat CPU 7 instructions: 190000052 cycles: 78019399 heartbeat IPC: 2.328 cumulative IPC: 2.334 (Simulation time: 03 hr 04 min 27 sec)
*** Reached end of trace: (3, "traces/canneal_big0.champsimtrace")
*** Reached end of trace: (2, "traces/canneal_big3.champsimtrace")
*** Reached end of trace: (6, "traces/canneal_big3.champsimtrace")
*** Reached end of trace: (5, "traces/canneal_big2.champsimtrace")
*** Reached end of trace: (1, "traces/canneal_big2.champsimtrace")
*** Reached end of trace: (2, "traces/canneal_big3.champsimtrace")
*** Reached end of trace: (6, "traces/canneal_big3.champsimtrace")
Heartbeat CPU 2 instructions: 320000001 cycles: 80003650 heartbeat IPC: 4 cumulative IPC: 4 (Simulation time: 03 hr 08 min 59 sec)
Heartbeat CPU 6 instructions: 320000001 cycles: 80003657 heartbeat IPC: 4 cumulative IPC: 4 (Simulation time: 03 hr 08 min 59 sec)
*** Reached end of trace: (5, "traces/canneal_big2.champsimtrace")
*** Reached end of trace: (1, "traces/canneal_big2.champsimtrace")
Heartbeat CPU 5 instructions: 320000001 cycles: 80003805 heartbeat IPC: 4 cumulative IPC: 4 (Simulation time: 03 hr 08 min 59 sec)
Heartbeat CPU 1 instructions: 320000001 cycles: 80003810 heartbeat IPC: 4 cumulative IPC: 4 (Simulation time: 03 hr 08 min 59 sec)
*** Reached end of trace: (3, "traces/canneal_big0.champsimtrace")
Heartbeat CPU 3 instructions: 200000050 cycles: 80061141 heartbeat IPC: 2.481 cumulative IPC: 2.441 (Simulation time: 03 hr 09 min 07 sec)
*** Reached end of trace: (7, "traces/canneal_big0.champsimtrace")
*** Reached end of trace: (2, "traces/canneal_big3.champsimtrace")
*** Reached end of trace: (6, "traces/canneal_big3.champsimtrace")
*** Reached end of trace: (5, "traces/canneal_big2.champsimtrace")
*** Reached end of trace: (1, "traces/canneal_big2.champsimtrace")
*** Reached end of trace: (3, "traces/canneal_big0.champsimtrace")
*** Reached end of trace: (7, "traces/canneal_big0.champsimtrace")
Heartbeat CPU 7 instructions: 200000055 cycles: 82238155 heartbeat IPC: 2.37 cumulative IPC: 2.337 (Simulation time: 03 hr 14 min 06 sec)
*** Reached end of trace: (2, "traces/canneal_big3.champsimtrace")
*** Reached end of trace: (6, "traces/canneal_big3.champsimtrace")
Heartbeat CPU 2 instructions: 330000001 cycles: 82503650 heartbeat IPC: 4 cumulative IPC: 4 (Simulation time: 03 hr 14 min 43 sec)
Heartbeat CPU 6 instructions: 330000001 cycles: 82503657 heartbeat IPC: 4 cumulative IPC: 4 (Simulation time: 03 hr 14 min 43 sec)
*** Reached end of trace: (5, "traces/canneal_big2.champsimtrace")
*** Reached end of trace: (1, "traces/canneal_big2.champsimtrace")
Heartbeat CPU 5 instructions: 330000001 cycles: 82503805 heartbeat IPC: 4 cumulative IPC: 4 (Simulation time: 03 hr 14 min 43 sec)
Heartbeat CPU 1 instructions: 330000001 cycles: 82503810 heartbeat IPC: 4 cumulative IPC: 4 (Simulation time: 03 hr 14 min 43 sec)
*** Reached end of trace: (2, "traces/canneal_big3.champsimtrace")
*** Reached end of trace: (6, "traces/canneal_big3.champsimtrace")
*** Reached end of trace: (5, "traces/canneal_big2.champsimtrace")
*** Reached end of trace: (1, "traces/canneal_big2.champsimtrace")
*** Reached end of trace: (3, "traces/canneal_big0.champsimtrace")
Heartbeat CPU 3 instructions: 210000053 cycles: 84146336 heartbeat IPC: 2.448 cumulative IPC: 2.441 (Simulation time: 03 hr 18 min 27 sec)
*** Reached end of trace: (7, "traces/canneal_big0.champsimtrace")
*** Reached end of trace: (2, "traces/canneal_big3.champsimtrace")
*** Reached end of trace: (6, "traces/canneal_big3.champsimtrace")
Heartbeat CPU 2 instructions: 340000001 cycles: 85003650 heartbeat IPC: 4 cumulative IPC: 4 (Simulation time: 03 hr 20 min 26 sec)
Heartbeat CPU 6 instructions: 340000001 cycles: 85003657 heartbeat IPC: 4 cumulative IPC: 4 (Simulation time: 03 hr 20 min 26 sec)
*** Reached end of trace: (5, "traces/canneal_big2.champsimtrace")
*** Reached end of trace: (1, "traces/canneal_big2.champsimtrace")
Heartbeat CPU 5 instructions: 340000001 cycles: 85003805 heartbeat IPC: 4 cumulative IPC: 4 (Simulation time: 03 hr 20 min 26 sec)
Heartbeat CPU 1 instructions: 340000001 cycles: 85003810 heartbeat IPC: 4 cumulative IPC: 4 (Simulation time: 03 hr 20 min 26 sec)
*** Reached end of trace: (3, "traces/canneal_big0.champsimtrace")
*** Reached end of trace: (2, "traces/canneal_big3.champsimtrace")
*** Reached end of trace: (6, "traces/canneal_big3.champsimtrace")
*** Reached end of trace: (5, "traces/canneal_big2.champsimtrace")
*** Reached end of trace: (1, "traces/canneal_big2.champsimtrace")
*** Reached end of trace: (7, "traces/canneal_big0.champsimtrace")
Heartbeat CPU 7 instructions: 210000058 cycles: 86451246 heartbeat IPC: 2.374 cumulative IPC: 2.34 (Simulation time: 03 hr 23 min 44 sec)
*** Reached end of trace: (2, "traces/canneal_big3.champsimtrace")
*** Reached end of trace: (6, "traces/canneal_big3.champsimtrace")
Heartbeat CPU 2 instructions: 350000001 cycles: 87503650 heartbeat IPC: 4 cumulative IPC: 4 (Simulation time: 03 hr 26 min 09 sec)
Heartbeat CPU 6 instructions: 350000001 cycles: 87503657 heartbeat IPC: 4 cumulative IPC: 4 (Simulation time: 03 hr 26 min 09 sec)
*** Reached end of trace: (5, "traces/canneal_big2.champsimtrace")
*** Reached end of trace: (1, "traces/canneal_big2.champsimtrace")
Heartbeat CPU 5 instructions: 350000001 cycles: 87503805 heartbeat IPC: 4 cumulative IPC: 4 (Simulation time: 03 hr 26 min 09 sec)
Heartbeat CPU 1 instructions: 350000001 cycles: 87503810 heartbeat IPC: 4 cumulative IPC: 4 (Simulation time: 03 hr 26 min 09 sec)
*** Reached end of trace: (3, "traces/canneal_big0.champsimtrace")
Heartbeat CPU 3 instructions: 220000056 cycles: 88185855 heartbeat IPC: 2.476 cumulative IPC: 2.444 (Simulation time: 03 hr 27 min 42 sec)
*** Reached end of trace: (0, "traces/canneal_big1.champsimtrace")
*** Reached end of trace: (4, "traces/canneal_big1.champsimtrace")
Heartbeat CPU 0 instructions: 70000012 cycles: 88506864 heartbeat IPC: 0.3443 cumulative IPC: 0.3413 (Simulation time: 03 hr 28 min 27 sec)
Heartbeat CPU 4 instructions: 70000012 cycles: 88506865 heartbeat IPC: 0.3443 cumulative IPC: 0.3423 (Simulation time: 03 hr 28 min 27 sec)
*** Reached end of trace: (7, "traces/canneal_big0.champsimtrace")
*** Reached end of trace: (2, "traces/canneal_big3.champsimtrace")
*** Reached end of trace: (6, "traces/canneal_big3.champsimtrace")
*** Reached end of trace: (5, "traces/canneal_big2.champsimtrace")
*** Reached end of trace: (1, "traces/canneal_big2.champsimtrace")
*** Reached end of trace: (2, "traces/canneal_big3.champsimtrace")
*** Reached end of trace: (6, "traces/canneal_big3.champsimtrace")
Heartbeat CPU 2 instructions: 360000001 cycles: 90003650 heartbeat IPC: 4 cumulative IPC: 4 (Simulation time: 03 hr 31 min 52 sec)
Heartbeat CPU 6 instructions: 360000001 cycles: 90003657 heartbeat IPC: 4 cumulative IPC: 4 (Simulation time: 03 hr 31 min 52 sec)
*** Reached end of trace: (5, "traces/canneal_big2.champsimtrace")
*** Reached end of trace: (1, "traces/canneal_big2.champsimtrace")
Heartbeat CPU 5 instructions: 360000001 cycles: 90003805 heartbeat IPC: 4 cumulative IPC: 4 (Simulation time: 03 hr 31 min 52 sec)
Heartbeat CPU 1 instructions: 360000001 cycles: 90003810 heartbeat IPC: 4 cumulative IPC: 4 (Simulation time: 03 hr 31 min 52 sec)
*** Reached end of trace: (3, "traces/canneal_big0.champsimtrace")
*** Reached end of trace: (7, "traces/canneal_big0.champsimtrace")
Heartbeat CPU 7 instructions: 220000061 cycles: 90695947 heartbeat IPC: 2.356 cumulative IPC: 2.341 (Simulation time: 03 hr 33 min 28 sec)
*** Reached end of trace: (2, "traces/canneal_big3.champsimtrace")
*** Reached end of trace: (6, "traces/canneal_big3.champsimtrace")
*** Reached end of trace: (5, "traces/canneal_big2.champsimtrace")
*** Reached end of trace: (1, "traces/canneal_big2.champsimtrace")
*** Reached end of trace: (3, "traces/canneal_big0.champsimtrace")
Heartbeat CPU 3 instructions: 230000059 cycles: 92236026 heartbeat IPC: 2.469 cumulative IPC: 2.445 (Simulation time: 03 hr 36 min 58 sec)
*** Reached end of trace: (2, "traces/canneal_big3.champsimtrace")
*** Reached end of trace: (6, "traces/canneal_big3.champsimtrace")
Heartbeat CPU 2 instructions: 370000001 cycles: 92503650 heartbeat IPC: 4 cumulative IPC: 4 (Simulation time: 03 hr 37 min 35 sec)
Heartbeat CPU 6 instructions: 370000001 cycles: 92503657 heartbeat IPC: 4 cumulative IPC: 4 (Simulation time: 03 hr 37 min 35 sec)
*** Reached end of trace: (5, "traces/canneal_big2.champsimtrace")
*** Reached end of trace: (1, "traces/canneal_big2.champsimtrace")
Heartbeat CPU 5 instructions: 370000001 cycles: 92503805 heartbeat IPC: 4 cumulative IPC: 4 (Simulation time: 03 hr 37 min 35 sec)
Heartbeat CPU 1 instructions: 370000001 cycles: 92503810 heartbeat IPC: 4 cumulative IPC: 4 (Simulation time: 03 hr 37 min 35 sec)
*** Reached end of trace: (7, "traces/canneal_big0.champsimtrace")
*** Reached end of trace: (2, "traces/canneal_big3.champsimtrace")
*** Reached end of trace: (6, "traces/canneal_big3.champsimtrace")
*** Reached end of trace: (5, "traces/canneal_big2.champsimtrace")
*** Reached end of trace: (1, "traces/canneal_big2.champsimtrace")
*** Reached end of trace: (3, "traces/canneal_big0.champsimtrace")
*** Reached end of trace: (7, "traces/canneal_big0.champsimtrace")
Heartbeat CPU 7 instructions: 230000061 cycles: 94955150 heartbeat IPC: 2.348 cumulative IPC: 2.342 (Simulation time: 03 hr 43 min 11 sec)
*** Reached end of trace: (2, "traces/canneal_big3.champsimtrace")
*** Reached end of trace: (6, "traces/canneal_big3.champsimtrace")
Heartbeat CPU 2 instructions: 380000001 cycles: 95003650 heartbeat IPC: 4 cumulative IPC: 4 (Simulation time: 03 hr 43 min 18 sec)
Heartbeat CPU 6 instructions: 380000001 cycles: 95003657 heartbeat IPC: 4 cumulative IPC: 4 (Simulation time: 03 hr 43 min 18 sec)
*** Reached end of trace: (5, "traces/canneal_big2.champsimtrace")
*** Reached end of trace: (1, "traces/canneal_big2.champsimtrace")
Heartbeat CPU 5 instructions: 380000001 cycles: 95003805 heartbeat IPC: 4 cumulative IPC: 4 (Simulation time: 03 hr 43 min 18 sec)
Heartbeat CPU 1 instructions: 380000001 cycles: 95003810 heartbeat IPC: 4 cumulative IPC: 4 (Simulation time: 03 hr 43 min 18 sec)
*** Reached end of trace: (2, "traces/canneal_big3.champsimtrace")
*** Reached end of trace: (6, "traces/canneal_big3.champsimtrace")
*** Reached end of trace: (5, "traces/canneal_big2.champsimtrace")
*** Reached end of trace: (1, "traces/canneal_big2.champsimtrace")
*** Reached end of trace: (3, "traces/canneal_big0.champsimtrace")
Heartbeat CPU 3 instructions: 240000059 cycles: 96299533 heartbeat IPC: 2.461 cumulative IPC: 2.446 (Simulation time: 03 hr 46 min 16 sec)
*** Reached end of trace: (7, "traces/canneal_big0.champsimtrace")
*** Reached end of trace: (2, "traces/canneal_big3.champsimtrace")
*** Reached end of trace: (6, "traces/canneal_big3.champsimtrace")
Heartbeat CPU 2 instructions: 390000001 cycles: 97503650 heartbeat IPC: 4 cumulative IPC: 4 (Simulation time: 03 hr 49 min 02 sec)
Heartbeat CPU 6 instructions: 390000001 cycles: 97503657 heartbeat IPC: 4 cumulative IPC: 4 (Simulation time: 03 hr 49 min 02 sec)
*** Reached end of trace: (5, "traces/canneal_big2.champsimtrace")
*** Reached end of trace: (1, "traces/canneal_big2.champsimtrace")
Heartbeat CPU 5 instructions: 390000001 cycles: 97503805 heartbeat IPC: 4 cumulative IPC: 4 (Simulation time: 03 hr 49 min 02 sec)
Heartbeat CPU 1 instructions: 390000001 cycles: 97503810 heartbeat IPC: 4 cumulative IPC: 4 (Simulation time: 03 hr 49 min 02 sec)
*** Reached end of trace: (3, "traces/canneal_big0.champsimtrace")
*** Reached end of trace: (2, "traces/canneal_big3.champsimtrace")
*** Reached end of trace: (6, "traces/canneal_big3.champsimtrace")
*** Reached end of trace: (5, "traces/canneal_big2.champsimtrace")
*** Reached end of trace: (1, "traces/canneal_big2.champsimtrace")
*** Reached end of trace: (7, "traces/canneal_big0.champsimtrace")
Heartbeat CPU 7 instructions: 240000064 cycles: 99214616 heartbeat IPC: 2.348 cumulative IPC: 2.342 (Simulation time: 03 hr 52 min 56 sec)
*** Reached end of trace: (2, "traces/canneal_big3.champsimtrace")
*** Reached end of trace: (6, "traces/canneal_big3.champsimtrace")
Heartbeat CPU 2 instructions: 400000001 cycles: 100003650 heartbeat IPC: 4 cumulative IPC: 4 (Simulation time: 03 hr 54 min 45 sec)
Heartbeat CPU 6 instructions: 400000001 cycles: 100003657 heartbeat IPC: 4 cumulative IPC: 4 (Simulation time: 03 hr 54 min 45 sec)
*** Reached end of trace: (5, "traces/canneal_big2.champsimtrace")
*** Reached end of trace: (1, "traces/canneal_big2.champsimtrace")
Heartbeat CPU 5 instructions: 400000001 cycles: 100003805 heartbeat IPC: 4 cumulative IPC: 4 (Simulation time: 03 hr 54 min 45 sec)
Heartbeat CPU 1 instructions: 400000001 cycles: 100003810 heartbeat IPC: 4 cumulative IPC: 4 (Simulation time: 03 hr 54 min 45 sec)
*** Reached end of trace: (3, "traces/canneal_big0.champsimtrace")
Heartbeat CPU 3 instructions: 250000060 cycles: 100355532 heartbeat IPC: 2.465 cumulative IPC: 2.447 (Simulation time: 03 hr 55 min 33 sec)
*** Reached end of trace: (2, "traces/canneal_big3.champsimtrace")
*** Reached end of trace: (6, "traces/canneal_big3.champsimtrace")
*** Reached end of trace: (5, "traces/canneal_big2.champsimtrace")
*** Reached end of trace: (1, "traces/canneal_big2.champsimtrace")
*** Reached end of trace: (7, "traces/canneal_big0.champsimtrace")
*** Reached end of trace: (3, "traces/canneal_big0.champsimtrace")
*** Reached end of trace: (2, "traces/canneal_big3.champsimtrace")
*** Reached end of trace: (6, "traces/canneal_big3.champsimtrace")
Heartbeat CPU 2 instructions: 410000001 cycles: 102503650 heartbeat IPC: 4 cumulative IPC: 4 (Simulation time: 04 hr 00 min 28 sec)
Heartbeat CPU 6 instructions: 410000001 cycles: 102503657 heartbeat IPC: 4 cumulative IPC: 4 (Simulation time: 04 hr 00 min 28 sec)
*** Reached end of trace: (5, "traces/canneal_big2.champsimtrace")
*** Reached end of trace: (1, "traces/canneal_big2.champsimtrace")
Heartbeat CPU 5 instructions: 410000001 cycles: 102503805 heartbeat IPC: 4 cumulative IPC: 4 (Simulation time: 04 hr 00 min 28 sec)
Heartbeat CPU 1 instructions: 410000001 cycles: 102503810 heartbeat IPC: 4 cumulative IPC: 4 (Simulation time: 04 hr 00 min 28 sec)
*** Reached end of trace: (0, "traces/canneal_big1.champsimtrace")
*** Reached end of trace: (4, "traces/canneal_big1.champsimtrace")
*** Reached end of trace: (7, "traces/canneal_big0.champsimtrace")
Heartbeat CPU 7 instructions: 250000067 cycles: 103475267 heartbeat IPC: 2.347 cumulative IPC: 2.342 (Simulation time: 04 hr 02 min 41 sec)
*** Reached end of trace: (2, "traces/canneal_big3.champsimtrace")
*** Reached end of trace: (6, "traces/canneal_big3.champsimtrace")
*** Reached end of trace: (5, "traces/canneal_big2.champsimtrace")
*** Reached end of trace: (1, "traces/canneal_big2.champsimtrace")
*** Reached end of trace: (3, "traces/canneal_big0.champsimtrace")
Heartbeat CPU 3 instructions: 260000060 cycles: 104406744 heartbeat IPC: 2.468 cumulative IPC: 2.448 (Simulation time: 04 hr 04 min 49 sec)
*** Reached end of trace: (2, "traces/canneal_big3.champsimtrace")
*** Reached end of trace: (6, "traces/canneal_big3.champsimtrace")
Heartbeat CPU 2 instructions: 420000001 cycles: 105003650 heartbeat IPC: 4 cumulative IPC: 4 (Simulation time: 04 hr 06 min 11 sec)
Heartbeat CPU 6 instructions: 420000001 cycles: 105003657 heartbeat IPC: 4 cumulative IPC: 4 (Simulation time: 04 hr 06 min 11 sec)
*** Reached end of trace: (5, "traces/canneal_big2.champsimtrace")
*** Reached end of trace: (1, "traces/canneal_big2.champsimtrace")
Heartbeat CPU 5 instructions: 420000001 cycles: 105003805 heartbeat IPC: 4 cumulative IPC: 4 (Simulation time: 04 hr 06 min 11 sec)
Heartbeat CPU 1 instructions: 420000001 cycles: 105003810 heartbeat IPC: 4 cumulative IPC: 4 (Simulation time: 04 hr 06 min 11 sec)
*** Reached end of trace: (7, "traces/canneal_big0.champsimtrace")
*** Reached end of trace: (2, "traces/canneal_big3.champsimtrace")
*** Reached end of trace: (6, "traces/canneal_big3.champsimtrace")
*** Reached end of trace: (5, "traces/canneal_big2.champsimtrace")
*** Reached end of trace: (1, "traces/canneal_big2.champsimtrace")
*** Reached end of trace: (3, "traces/canneal_big0.champsimtrace")
*** Reached end of trace: (2, "traces/canneal_big3.champsimtrace")
*** Reached end of trace: (6, "traces/canneal_big3.champsimtrace")
Heartbeat CPU 2 instructions: 430000001 cycles: 107503650 heartbeat IPC: 4 cumulative IPC: 4 (Simulation time: 04 hr 11 min 54 sec)
Heartbeat CPU 6 instructions: 430000001 cycles: 107503657 heartbeat IPC: 4 cumulative IPC: 4 (Simulation time: 04 hr 11 min 54 sec)
*** Reached end of trace: (5, "traces/canneal_big2.champsimtrace")
*** Reached end of trace: (1, "traces/canneal_big2.champsimtrace")
Heartbeat CPU 5 instructions: 430000001 cycles: 107503805 heartbeat IPC: 4 cumulative IPC: 4 (Simulation time: 04 hr 11 min 54 sec)
Heartbeat CPU 1 instructions: 430000001 cycles: 107503810 heartbeat IPC: 4 cumulative IPC: 4 (Simulation time: 04 hr 11 min 54 sec)
*** Reached end of trace: (7, "traces/canneal_big0.champsimtrace")
Heartbeat CPU 7 instructions: 260000070 cycles: 107757643 heartbeat IPC: 2.335 cumulative IPC: 2.342 (Simulation time: 04 hr 12 min 29 sec)
*** Reached end of trace: (3, "traces/canneal_big0.champsimtrace")
Heartbeat CPU 3 instructions: 270000063 cycles: 108467640 heartbeat IPC: 2.463 cumulative IPC: 2.449 (Simulation time: 04 hr 14 min 06 sec)
*** Reached end of trace: (2, "traces/canneal_big3.champsimtrace")
*** Reached end of trace: (6, "traces/canneal_big3.champsimtrace")
*** Reached end of trace: (5, "traces/canneal_big2.champsimtrace")
*** Reached end of trace: (1, "traces/canneal_big2.champsimtrace")
*** Reached end of trace: (7, "traces/canneal_big0.champsimtrace")
*** Reached end of trace: (2, "traces/canneal_big3.champsimtrace")
*** Reached end of trace: (6, "traces/canneal_big3.champsimtrace")
Heartbeat CPU 2 instructions: 440000001 cycles: 110003650 heartbeat IPC: 4 cumulative IPC: 4 (Simulation time: 04 hr 17 min 37 sec)
Heartbeat CPU 6 instructions: 440000001 cycles: 110003657 heartbeat IPC: 4 cumulative IPC: 4 (Simulation time: 04 hr 17 min 37 sec)
*** Reached end of trace: (5, "traces/canneal_big2.champsimtrace")
*** Reached end of trace: (1, "traces/canneal_big2.champsimtrace")
Heartbeat CPU 5 instructions: 440000001 cycles: 110003805 heartbeat IPC: 4 cumulative IPC: 4 (Simulation time: 04 hr 17 min 37 sec)
Heartbeat CPU 1 instructions: 440000001 cycles: 110003810 heartbeat IPC: 4 cumulative IPC: 4 (Simulation time: 04 hr 17 min 37 sec)
*** Reached end of trace: (3, "traces/canneal_big0.champsimtrace")
*** Reached end of trace: (2, "traces/canneal_big3.champsimtrace")
*** Reached end of trace: (6, "traces/canneal_big3.champsimtrace")
*** Reached end of trace: (5, "traces/canneal_big2.champsimtrace")
*** Reached end of trace: (1, "traces/canneal_big2.champsimtrace")
*** Reached end of trace: (7, "traces/canneal_big0.champsimtrace")
Heartbeat CPU 7 instructions: 270000073 cycles: 112030289 heartbeat IPC: 2.34 cumulative IPC: 2.342 (Simulation time: 04 hr 22 min 19 sec)
*** Reached end of trace: (2, "traces/canneal_big3.champsimtrace")
*** Reached end of trace: (6, "traces/canneal_big3.champsimtrace")
Heartbeat CPU 2 instructions: 450000001 cycles: 112503650 heartbeat IPC: 4 cumulative IPC: 4 (Simulation time: 04 hr 23 min 26 sec)
Heartbeat CPU 6 instructions: 450000001 cycles: 112503657 heartbeat IPC: 4 cumulative IPC: 4 (Simulation time: 04 hr 23 min 26 sec)
*** Reached end of trace: (5, "traces/canneal_big2.champsimtrace")
*** Reached end of trace: (1, "traces/canneal_big2.champsimtrace")
Heartbeat CPU 5 instructions: 450000001 cycles: 112503805 heartbeat IPC: 4 cumulative IPC: 4 (Simulation time: 04 hr 23 min 26 sec)
Heartbeat CPU 1 instructions: 450000001 cycles: 112503810 heartbeat IPC: 4 cumulative IPC: 4 (Simulation time: 04 hr 23 min 26 sec)
*** Reached end of trace: (3, "traces/canneal_big0.champsimtrace")
Heartbeat CPU 3 instructions: 280000066 cycles: 112516584 heartbeat IPC: 2.47 cumulative IPC: 2.45 (Simulation time: 04 hr 23 min 28 sec)
*** Reached end of trace: (2, "traces/canneal_big3.champsimtrace")
*** Reached end of trace: (6, "traces/canneal_big3.champsimtrace")
*** Reached end of trace: (5, "traces/canneal_big2.champsimtrace")
*** Reached end of trace: (1, "traces/canneal_big2.champsimtrace")
*** Reached end of trace: (7, "traces/canneal_big0.champsimtrace")
*** Reached end of trace: (3, "traces/canneal_big0.champsimtrace")
*** Reached end of trace: (2, "traces/canneal_big3.champsimtrace")
*** Reached end of trace: (6, "traces/canneal_big3.champsimtrace")
Heartbeat CPU 2 instructions: 460000001 cycles: 115003650 heartbeat IPC: 4 cumulative IPC: 4 (Simulation time: 04 hr 29 min 15 sec)
Heartbeat CPU 6 instructions: 460000001 cycles: 115003657 heartbeat IPC: 4 cumulative IPC: 4 (Simulation time: 04 hr 29 min 15 sec)
*** Reached end of trace: (5, "traces/canneal_big2.champsimtrace")
*** Reached end of trace: (1, "traces/canneal_big2.champsimtrace")
Heartbeat CPU 5 instructions: 460000001 cycles: 115003805 heartbeat IPC: 4 cumulative IPC: 4 (Simulation time: 04 hr 29 min 15 sec)
Heartbeat CPU 1 instructions: 460000001 cycles: 115003810 heartbeat IPC: 4 cumulative IPC: 4 (Simulation time: 04 hr 29 min 15 sec)
*** Reached end of trace: (2, "traces/canneal_big3.champsimtrace")
*** Reached end of trace: (6, "traces/canneal_big3.champsimtrace")
*** Reached end of trace: (5, "traces/canneal_big2.champsimtrace")
*** Reached end of trace: (1, "traces/canneal_big2.champsimtrace")
*** Reached end of trace: (7, "traces/canneal_big0.champsimtrace")
Heartbeat CPU 7 instructions: 280000076 cycles: 116303410 heartbeat IPC: 2.34 cumulative IPC: 2.342 (Simulation time: 04 hr 32 min 15 sec)
*** Reached end of trace: (3, "traces/canneal_big0.champsimtrace")
Heartbeat CPU 3 instructions: 290000069 cycles: 116574050 heartbeat IPC: 2.465 cumulative IPC: 2.451 (Simulation time: 04 hr 32 min 53 sec)
*** Reached end of trace: (0, "traces/canneal_big1.champsimtrace")
*** Reached end of trace: (4, "traces/canneal_big1.champsimtrace")
Heartbeat CPU 0 instructions: 80000014 cycles: 117490305 heartbeat IPC: 0.345 cumulative IPC: 0.3425 (Simulation time: 04 hr 35 min 01 sec)
Heartbeat CPU 4 instructions: 80000014 cycles: 117490306 heartbeat IPC: 0.345 cumulative IPC: 0.3432 (Simulation time: 04 hr 35 min 01 sec)
*** Reached end of trace: (2, "traces/canneal_big3.champsimtrace")
*** Reached end of trace: (6, "traces/canneal_big3.champsimtrace")
Heartbeat CPU 2 instructions: 470000001 cycles: 117503650 heartbeat IPC: 4 cumulative IPC: 4 (Simulation time: 04 hr 35 min 03 sec)
Heartbeat CPU 6 instructions: 470000001 cycles: 117503657 heartbeat IPC: 4 cumulative IPC: 4 (Simulation time: 04 hr 35 min 03 sec)
*** Reached end of trace: (5, "traces/canneal_big2.champsimtrace")
*** Reached end of trace: (1, "traces/canneal_big2.champsimtrace")
Heartbeat CPU 5 instructions: 470000001 cycles: 117503805 heartbeat IPC: 4 cumulative IPC: 4 (Simulation time: 04 hr 35 min 03 sec)
Heartbeat CPU 1 instructions: 470000001 cycles: 117503810 heartbeat IPC: 4 cumulative IPC: 4 (Simulation time: 04 hr 35 min 03 sec)
*** Reached end of trace: (7, "traces/canneal_big0.champsimtrace")
*** Reached end of trace: (3, "traces/canneal_big0.champsimtrace")
*** Reached end of trace: (2, "traces/canneal_big3.champsimtrace")
*** Reached end of trace: (6, "traces/canneal_big3.champsimtrace")
*** Reached end of trace: (5, "traces/canneal_big2.champsimtrace")
*** Reached end of trace: (1, "traces/canneal_big2.champsimtrace")
*** Reached end of trace: (2, "traces/canneal_big3.champsimtrace")
*** Reached end of trace: (6, "traces/canneal_big3.champsimtrace")
Heartbeat CPU 2 instructions: 480000001 cycles: 120003650 heartbeat IPC: 4 cumulative IPC: 4 (Simulation time: 04 hr 40 min 51 sec)
Heartbeat CPU 6 instructions: 480000001 cycles: 120003657 heartbeat IPC: 4 cumulative IPC: 4 (Simulation time: 04 hr 40 min 51 sec)
*** Reached end of trace: (5, "traces/canneal_big2.champsimtrace")
*** Reached end of trace: (1, "traces/canneal_big2.champsimtrace")
Heartbeat CPU 5 instructions: 480000001 cycles: 120003805 heartbeat IPC: 4 cumulative IPC: 4 (Simulation time: 04 hr 40 min 51 sec)
Heartbeat CPU 1 instructions: 480000001 cycles: 120003810 heartbeat IPC: 4 cumulative IPC: 4 (Simulation time: 04 hr 40 min 51 sec)
*** Reached end of trace: (7, "traces/canneal_big0.champsimtrace")
Heartbeat CPU 7 instructions: 290000079 cycles: 120589851 heartbeat IPC: 2.333 cumulative IPC: 2.341 (Simulation time: 04 hr 42 min 12 sec)
*** Reached end of trace: (3, "traces/canneal_big0.champsimtrace")
Heartbeat CPU 3 instructions: 300000070 cycles: 120620686 heartbeat IPC: 2.471 cumulative IPC: 2.452 (Simulation time: 04 hr 42 min 17 sec)
*** Reached end of trace: (2, "traces/canneal_big3.champsimtrace")
*** Reached end of trace: (6, "traces/canneal_big3.champsimtrace")
*** Reached end of trace: (5, "traces/canneal_big2.champsimtrace")
*** Reached end of trace: (1, "traces/canneal_big2.champsimtrace")
*** Reached end of trace: (2, "traces/canneal_big3.champsimtrace")
*** Reached end of trace: (6, "traces/canneal_big3.champsimtrace")
Heartbeat CPU 2 instructions: 490000001 cycles: 122503650 heartbeat IPC: 4 cumulative IPC: 4 (Simulation time: 04 hr 46 min 39 sec)
Heartbeat CPU 6 instructions: 490000001 cycles: 122503657 heartbeat IPC: 4 cumulative IPC: 4 (Simulation time: 04 hr 46 min 39 sec)
*** Reached end of trace: (5, "traces/canneal_big2.champsimtrace")
*** Reached end of trace: (1, "traces/canneal_big2.champsimtrace")
Heartbeat CPU 5 instructions: 490000001 cycles: 122503805 heartbeat IPC: 4 cumulative IPC: 4 (Simulation time: 04 hr 46 min 39 sec)
Heartbeat CPU 1 instructions: 490000001 cycles: 122503810 heartbeat IPC: 4 cumulative IPC: 4 (Simulation time: 04 hr 46 min 39 sec)
*** Reached end of trace: (3, "traces/canneal_big0.champsimtrace")
*** Reached end of trace: (7, "traces/canneal_big0.champsimtrace")
*** Reached end of trace: (2, "traces/canneal_big3.champsimtrace")
*** Reached end of trace: (6, "traces/canneal_big3.champsimtrace")
*** Reached end of trace: (5, "traces/canneal_big2.champsimtrace")
*** Reached end of trace: (1, "traces/canneal_big2.champsimtrace")
*** Reached end of trace: (3, "traces/canneal_big0.champsimtrace")
Heartbeat CPU 3 instructions: 310000073 cycles: 124663794 heartbeat IPC: 2.473 cumulative IPC: 2.453 (Simulation time: 04 hr 51 min 40 sec)
*** Reached end of trace: (7, "traces/canneal_big0.champsimtrace")
Heartbeat CPU 7 instructions: 300000080 cycles: 124802634 heartbeat IPC: 2.374 cumulative IPC: 2.343 (Simulation time: 04 hr 52 min 00 sec)
*** Reached end of trace: (2, "traces/canneal_big3.champsimtrace")
*** Reached end of trace: (6, "traces/canneal_big3.champsimtrace")
Heartbeat CPU 2 instructions: 500000001 cycles: 125003650 heartbeat IPC: 4 cumulative IPC: 4 (Simulation time: 04 hr 52 min 29 sec)
Heartbeat CPU 6 instructions: 500000001 cycles: 125003657 heartbeat IPC: 4 cumulative IPC: 4 (Simulation time: 04 hr 52 min 29 sec)
*** Reached end of trace: (5, "traces/canneal_big2.champsimtrace")
*** Reached end of trace: (1, "traces/canneal_big2.champsimtrace")
Heartbeat CPU 5 instructions: 500000001 cycles: 125003805 heartbeat IPC: 4 cumulative IPC: 4 (Simulation time: 04 hr 52 min 29 sec)
Heartbeat CPU 1 instructions: 500000001 cycles: 125003810 heartbeat IPC: 4 cumulative IPC: 4 (Simulation time: 04 hr 52 min 29 sec)
*** Reached end of trace: (2, "traces/canneal_big3.champsimtrace")
*** Reached end of trace: (6, "traces/canneal_big3.champsimtrace")
*** Reached end of trace: (5, "traces/canneal_big2.champsimtrace")
*** Reached end of trace: (1, "traces/canneal_big2.champsimtrace")
*** Reached end of trace: (3, "traces/canneal_big0.champsimtrace")
*** Reached end of trace: (7, "traces/canneal_big0.champsimtrace")
*** Reached end of trace: (2, "traces/canneal_big3.champsimtrace")
*** Reached end of trace: (6, "traces/canneal_big3.champsimtrace")
Heartbeat CPU 2 instructions: 510000001 cycles: 127503650 heartbeat IPC: 4 cumulative IPC: 4 (Simulation time: 04 hr 58 min 18 sec)
Heartbeat CPU 6 instructions: 510000001 cycles: 127503657 heartbeat IPC: 4 cumulative IPC: 4 (Simulation time: 04 hr 58 min 18 sec)
*** Reached end of trace: (5, "traces/canneal_big2.champsimtrace")
*** Reached end of trace: (1, "traces/canneal_big2.champsimtrace")
Heartbeat CPU 5 instructions: 510000001 cycles: 127503805 heartbeat IPC: 4 cumulative IPC: 4 (Simulation time: 04 hr 58 min 18 sec)
Heartbeat CPU 1 instructions: 510000001 cycles: 127503810 heartbeat IPC: 4 cumulative IPC: 4 (Simulation time: 04 hr 58 min 18 sec)
*** Reached end of trace: (3, "traces/canneal_big0.champsimtrace")
Heartbeat CPU 3 instructions: 320000076 cycles: 128705570 heartbeat IPC: 2.474 cumulative IPC: 2.454 (Simulation time: 05 hr 01 min 04 sec)
*** Reached end of trace: (2, "traces/canneal_big3.champsimtrace")
*** Reached end of trace: (6, "traces/canneal_big3.champsimtrace")
*** Reached end of trace: (5, "traces/canneal_big2.champsimtrace")
*** Reached end of trace: (1, "traces/canneal_big2.champsimtrace")
*** Reached end of trace: (7, "traces/canneal_big0.champsimtrace")
Heartbeat CPU 7 instructions: 310000083 cycles: 129020115 heartbeat IPC: 2.371 cumulative IPC: 2.344 (Simulation time: 05 hr 01 min 49 sec)
*** Reached end of trace: (2, "traces/canneal_big3.champsimtrace")
*** Reached end of trace: (6, "traces/canneal_big3.champsimtrace")
Heartbeat CPU 2 instructions: 520000001 cycles: 130003650 heartbeat IPC: 4 cumulative IPC: 4 (Simulation time: 05 hr 04 min 06 sec)
*** Reached end of trace: (5, "traces/canneal_big2.champsimtrace")
Heartbeat CPU 6 instructions: 520000001 cycles: 130003657 heartbeat IPC: 4 cumulative IPC: 4 (Simulation time: 05 hr 04 min 06 sec)
*** Reached end of trace: (1, "traces/canneal_big2.champsimtrace")
Heartbeat CPU 5 instructions: 520000001 cycles: 130003805 heartbeat IPC: 4 cumulative IPC: 4 (Simulation time: 05 hr 04 min 06 sec)
Heartbeat CPU 1 instructions: 520000001 cycles: 130003810 heartbeat IPC: 4 cumulative IPC: 4 (Simulation time: 05 hr 04 min 06 sec)
*** Reached end of trace: (3, "traces/canneal_big0.champsimtrace")
[...]
cpu4->cpu4_L1I PREFETCH     ACCESS:          0 HIT:          0 MISS:          0 MSHR_MERGE:          0
cpu4->cpu4_L1I WRITE        ACCESS:          0 HIT:          0 MISS:          0 MSHR_MERGE:          0
cpu4->cpu4_L1I TRANSLATION  ACCESS:          0 HIT:          0 MISS:          0 MSHR_MERGE:          0
cpu4->cpu4_L1I PREFETCH REQUESTED:          0 ISSUED:          0 USEFUL:          0 USELESS:          0
cpu4->cpu4_L1I AVERAGE MISS LATENCY: 142.9 cycles
cpu4_L1I COHERENCE INVALIDATIONS:          0
cpu4_L1I COHERENCE WRITE-HIT OTHER-SHARER EVENTS:          0
cpu4->cpu4_L1D TOTAL        ACCESS:     392878 HIT:       3763 MISS:     389115 MSHR_MERGE:          0
cpu4->cpu4_L1D LOAD         ACCESS:          0 HIT:          0 MISS:          0 MSHR_MERGE:          0
cpu4->cpu4_L1D RFO          ACCESS:          0 HIT:          0 MISS:          0 MSHR_MERGE:          0
cpu4->cpu4_L1D PREFETCH     ACCESS:          0 HIT:          0 MISS:          0 MSHR_MERGE:          0
cpu4->cpu4_L1D WRITE        ACCESS:          0 HIT:          0 MISS:          0 MSHR_MERGE:          0
cpu4->cpu4_L1D TRANSLATION  ACCESS:     392878 HIT:       3763 MISS:     389115 MSHR_MERGE:          0
cpu4->cpu4_L1D PREFETCH REQUESTED:          0 ISSUED:          0 USEFUL:          0 USELESS:          0
cpu4->cpu4_L1D AVERAGE MISS LATENCY: 237.9 cycles
cpu4_L1D COHERENCE INVALIDATIONS:          0
cpu4_L1D COHERENCE WRITE-HIT OTHER-SHARER EVENTS:          0
cpu4->cpu4_ITLB TOTAL        ACCESS:   32132760 HIT:   29865082 MISS:    2267678 MSHR_MERGE:      44677
cpu4->cpu4_ITLB LOAD         ACCESS:   32132760 HIT:   29865082 MISS:    2267678 MSHR_MERGE:      44677
cpu4->cpu4_ITLB RFO          ACCESS:          0 HIT:          0 MISS:          0 MSHR_MERGE:          0
cpu4->cpu4_ITLB PREFETCH     ACCESS:          0 HIT:          0 MISS:          0 MSHR_MERGE:          0
cpu4->cpu4_ITLB WRITE        ACCESS:          0 HIT:          0 MISS:          0 MSHR_MERGE:          0
cpu4->cpu4_ITLB TRANSLATION  ACCESS:          0 HIT:          0 MISS:          0 MSHR_MERGE:          0
cpu4->cpu4_ITLB PREFETCH REQUESTED:          0 ISSUED:          0 USEFUL:          0 USELESS:          0
cpu4->cpu4_ITLB AVERAGE MISS LATENCY: 46.81 cycles
cpu4_ITLB COHERENCE INVALIDATIONS:          0
cpu4_ITLB COHERENCE WRITE-HIT OTHER-SHARER EVENTS:          0
cpu4_DTLB COHERENCE INVALIDATIONS:          0
cpu4_DTLB COHERENCE WRITE-HIT OTHER-SHARER EVENTS:          0
cpu3->cpu3_STLB TOTAL        ACCESS:     267747 HIT:     267747 MISS:          0 MSHR_MERGE:          0
cpu3->cpu3_STLB LOAD         ACCESS:     267747 HIT:     267747 MISS:          0 MSHR_MERGE:          0
cpu3->cpu3_STLB RFO          ACCESS:          0 HIT:          0 MISS:          0 MSHR_MERGE:          0
cpu3->cpu3_STLB PREFETCH     ACCESS:          0 HIT:          0 MISS:          0 MSHR_MERGE:          0
cpu3->cpu3_STLB WRITE        ACCESS:          0 HIT:          0 MISS:          0 MSHR_MERGE:          0
cpu3->cpu3_STLB TRANSLATION  ACCESS:          0 HIT:          0 MISS:          0 MSHR_MERGE:          0
cpu3->cpu3_STLB PREFETCH REQUESTED:          0 ISSUED:          0 USEFUL:          0 USELESS:          0
cpu3->cpu3_STLB AVERAGE MISS LATENCY: - cycles
cpu3_STLB COHERENCE INVALIDATIONS:          0
cpu3_STLB COHERENCE WRITE-HIT OTHER-SHARER EVENTS:          0
cpu3->cpu3_L2C TOTAL        ACCESS:    8571290 HIT:    4158678 MISS:    4412612 MSHR_MERGE:          0
cpu3->cpu3_L2C LOAD         ACCESS:    1352502 HIT:     457734 MISS:     894768 MSHR_MERGE:          0
cpu3->cpu3_L2C RFO          ACCESS:    3581455 HIT:      63750 MISS:    3517705 MSHR_MERGE:          0
cpu3->cpu3_L2C PREFETCH     ACCESS:          0 HIT:          0 MISS:          0 MSHR_MERGE:          0
cpu3->cpu3_L2C WRITE        ACCESS:    3637333 HIT:    3637194 MISS:        139 MSHR_MERGE:          0
cpu3->cpu3_L2C TRANSLATION  ACCESS:          0 HIT:          0 MISS:          0 MSHR_MERGE:          0
cpu3->cpu3_L2C PREFETCH REQUESTED:          0 ISSUED:          0 USEFUL:          0 USELESS:          0
cpu3->cpu3_L2C AVERAGE MISS LATENCY: 51.49 cycles
cpu3_L2C COHERENCE INVALIDATIONS:          0
cpu3_L2C COHERENCE WRITE-HIT OTHER-SHARER EVENTS:          0
cpu3->cpu3_L1I TOTAL        ACCESS:  120198072 HIT:  119935340 MISS:     262732 MSHR_MERGE:      68681
cpu3->cpu3_L1I LOAD         ACCESS:  120198072 HIT:  119935340 MISS:     262732 MSHR_MERGE:      68681
cpu3->cpu3_L1I RFO          ACCESS:          0 HIT:          0 MISS:          0 MSHR_MERGE:          0
cpu3->cpu3_L1I PREFETCH     ACCESS:          0 HIT:          0 MISS:          0 MSHR_MERGE:          0
cpu3->cpu3_L1I WRITE        ACCESS:          0 HIT:          0 MISS:          0 MSHR_MERGE:          0
cpu3->cpu3_L1I TRANSLATION  ACCESS:          0 HIT:          0 MISS:          0 MSHR_MERGE:          0
cpu3->cpu3_L1I PREFETCH REQUESTED:          0 ISSUED:          0 USEFUL:          0 USELESS:          0
cpu3->cpu3_L1I AVERAGE MISS LATENCY: 130.7 cycles
cpu3_L1I COHERENCE INVALIDATIONS:          0
cpu3_L1I COHERENCE WRITE-HIT OTHER-SHARER EVENTS:          0
cpu3->cpu3_L1D TOTAL        ACCESS:  143897990 HIT:  129395876 MISS:   14502114 MSHR_MERGE:    9756970
cpu3->cpu3_L1D LOAD         ACCESS:   14168340 HIT:   12265055 MISS:    1903285 MSHR_MERGE:     744834
cpu3->cpu3_L1D RFO          ACCESS:          0 HIT:          0 MISS:          0 MSHR_MERGE:          0
cpu3->cpu3_L1D PREFETCH     ACCESS:          0 HIT:          0 MISS:          0 MSHR_MERGE:          0
cpu3->cpu3_L1D WRITE        ACCESS:  129729650 HIT:  117130821 MISS:   12598829 MSHR_MERGE:    9012136
cpu3->cpu3_L1D TRANSLATION  ACCESS:          0 HIT:          0 MISS:          0 MSHR_MERGE:          0
cpu3->cpu3_L1D PREFETCH REQUESTED:          0 ISSUED:          0 USEFUL:          0 USELESS:          0
cpu3->cpu3_L1D AVERAGE MISS LATENCY: 50.75 cycles
cpu3_L1D COHERENCE INVALIDATIONS:          0
cpu3_L1D COHERENCE WRITE-HIT OTHER-SHARER EVENTS:          0
cpu3->cpu3_ITLB TOTAL        ACCESS:  100073877 HIT:  100034071 MISS:      39806 MSHR_MERGE:      15353
cpu3->cpu3_ITLB LOAD         ACCESS:  100073877 HIT:  100034071 MISS:      39806 MSHR_MERGE:      15353
cpu3->cpu3_ITLB RFO          ACCESS:          0 HIT:          0 MISS:          0 MSHR_MERGE:          0
cpu3->cpu3_ITLB PREFETCH     ACCESS:          0 HIT:          0 MISS:          0 MSHR_MERGE:          0
cpu3->cpu3_ITLB WRITE        ACCESS:          0 HIT:          0 MISS:          0 MSHR_MERGE:          0
cpu3->cpu3_ITLB TRANSLATION  ACCESS:          0 HIT:          0 MISS:          0 MSHR_MERGE:          0
cpu3->cpu3_ITLB PREFETCH REQUESTED:          0 ISSUED:          0 USEFUL:          0 USELESS:          0
cpu3->cpu3_ITLB AVERAGE MISS LATENCY: 4.008 cycles
cpu3_ITLB COHERENCE INVALIDATIONS:          0
cpu3_ITLB COHERENCE WRITE-HIT OTHER-SHARER EVENTS:          0
cpu3->cpu3_DTLB TOTAL        ACCESS:  119798026 HIT:  119487181 MISS:     310845 MSHR_MERGE:      67551
cpu3->cpu3_DTLB LOAD         ACCESS:  119798026 HIT:  119487181 MISS:     310845 MSHR_MERGE:      67551
cpu3->cpu3_DTLB RFO          ACCESS:          0 HIT:          0 MISS:          0 MSHR_MERGE:          0
cpu3->cpu3_DTLB PREFETCH     ACCESS:          0 HIT:          0 MISS:          0 MSHR_MERGE:          0
cpu3->cpu3_DTLB WRITE        ACCESS:          0 HIT:          0 MISS:          0 MSHR_MERGE:          0
cpu3->cpu3_DTLB TRANSLATION  ACCESS:          0 HIT:          0 MISS:          0 MSHR_MERGE:          0
cpu3->cpu3_DTLB PREFETCH REQUESTED:          0 ISSUED:          0 USEFUL:          0 USELESS:          0
cpu3->cpu3_DTLB AVERAGE MISS LATENCY: 4 cycles
cpu3_DTLB COHERENCE INVALIDATIONS:          0
cpu3_DTLB COHERENCE WRITE-HIT OTHER-SHARER EVENTS:          0
cpu2_STLB COHERENCE INVALIDATIONS:          0
cpu2_STLB COHERENCE WRITE-HIT OTHER-SHARER EVENTS:          0
cpu2_L2C COHERENCE INVALIDATIONS:          0
cpu2_L2C COHERENCE WRITE-HIT OTHER-SHARER EVENTS:          0
cpu2->cpu2_L1I TOTAL        ACCESS:  153334686 HIT:  153334686 MISS:          0 MSHR_MERGE:          0
cpu2->cpu2_L1I LOAD         ACCESS:  153334686 HIT:  153334686 MISS:          0 MSHR_MERGE:          0
cpu2->cpu2_L1I RFO          ACCESS:          0 HIT:          0 MISS:          0 MSHR_MERGE:          0
cpu2->cpu2_L1I PREFETCH     ACCESS:          0 HIT:          0 MISS:          0 MSHR_MERGE:          0
cpu2->cpu2_L1I WRITE        ACCESS:          0 HIT:          0 MISS:          0 MSHR_MERGE:          0
cpu2->cpu2_L1I TRANSLATION  ACCESS:          0 HIT:          0 MISS:          0 MSHR_MERGE:          0
cpu2->cpu2_L1I PREFETCH REQUESTED:          0 ISSUED:          0 USEFUL:          0 USELESS:          0
cpu2->cpu2_L1I AVERAGE MISS LATENCY: - cycles
cpu2_L1I COHERENCE INVALIDATIONS:          0
cpu2_L1I COHERENCE WRITE-HIT OTHER-SHARER EVENTS:          0
cpu2_L1D COHERENCE INVALIDATIONS:          0
cpu2_L1D COHERENCE WRITE-HIT OTHER-SHARER EVENTS:          0
cpu2->cpu2_ITLB TOTAL        ACCESS:  133389022 HIT:  133389022 MISS:          0 MSHR_MERGE:          0
cpu2->cpu2_ITLB LOAD         ACCESS:  133389022 HIT:  133389022 MISS:          0 MSHR_MERGE:          0
cpu2->cpu2_ITLB RFO          ACCESS:          0 HIT:          0 MISS:          0 MSHR_MERGE:          0
cpu2->cpu2_ITLB PREFETCH     ACCESS:          0 HIT:          0 MISS:          0 MSHR_MERGE:          0
cpu2->cpu2_ITLB WRITE        ACCESS:          0 HIT:          0 MISS:          0 MSHR_MERGE:          0
cpu2->cpu2_ITLB TRANSLATION  ACCESS:          0 HIT:          0 MISS:          0 MSHR_MERGE:          0
cpu2->cpu2_ITLB PREFETCH REQUESTED:          0 ISSUED:          0 USEFUL:          0 USELESS:          0
cpu2->cpu2_ITLB AVERAGE MISS LATENCY: - cycles
cpu2_ITLB COHERENCE INVALIDATIONS:          0
cpu2_ITLB COHERENCE WRITE-HIT OTHER-SHARER EVENTS:          0
cpu2_DTLB COHERENCE INVALIDATIONS:          0
cpu2_DTLB COHERENCE WRITE-HIT OTHER-SHARER EVENTS:          0
cpu1_STLB COHERENCE INVALIDATIONS:          0
cpu1_STLB COHERENCE WRITE-HIT OTHER-SHARER EVENTS:          0
cpu1_L2C COHERENCE INVALIDATIONS:          0
cpu1_L2C COHERENCE WRITE-HIT OTHER-SHARER EVENTS:          0
cpu1->cpu1_L1I TOTAL        ACCESS:  166767249 HIT:  166767249 MISS:          0 MSHR_MERGE:          0
cpu1->cpu1_L1I LOAD         ACCESS:  166767249 HIT:  166767249 MISS:          0 MSHR_MERGE:          0
cpu1->cpu1_L1I RFO          ACCESS:          0 HIT:          0 MISS:          0 MSHR_MERGE:          0
cpu1->cpu1_L1I PREFETCH     ACCESS:          0 HIT:          0 MISS:          0 MSHR_MERGE:          0
cpu1->cpu1_L1I WRITE        ACCESS:          0 HIT:          0 MISS:          0 MSHR_MERGE:          0
cpu1->cpu1_L1I TRANSLATION  ACCESS:          0 HIT:          0 MISS:          0 MSHR_MERGE:          0
cpu1->cpu1_L1I PREFETCH REQUESTED:          0 ISSUED:          0 USEFUL:          0 USELESS:          0
cpu1->cpu1_L1I AVERAGE MISS LATENCY: - cycles
cpu1_L1I COHERENCE INVALIDATIONS:          0
cpu1_L1I COHERENCE WRITE-HIT OTHER-SHARER EVENTS:          0
cpu1_L1D COHERENCE INVALIDATIONS:          0
cpu1_L1D COHERENCE WRITE-HIT OTHER-SHARER EVENTS:          0
cpu1->cpu1_ITLB TOTAL        ACCESS:  139148255 HIT:  139148255 MISS:          0 MSHR_MERGE:          0
cpu1->cpu1_ITLB LOAD         ACCESS:  139148255 HIT:  139148255 MISS:          0 MSHR_MERGE:          0
cpu1->cpu1_ITLB RFO          ACCESS:          0 HIT:          0 MISS:          0 MSHR_MERGE:          0
cpu1->cpu1_ITLB PREFETCH     ACCESS:          0 HIT:          0 MISS:          0 MSHR_MERGE:          0
cpu1->cpu1_ITLB WRITE        ACCESS:          0 HIT:          0 MISS:          0 MSHR_MERGE:          0
cpu1->cpu1_ITLB TRANSLATION  ACCESS:          0 HIT:          0 MISS:          0 MSHR_MERGE:          0
cpu1->cpu1_ITLB PREFETCH REQUESTED:          0 ISSUED:          0 USEFUL:          0 USELESS:          0
cpu1->cpu1_ITLB AVERAGE MISS LATENCY: - cycles
cpu1_ITLB COHERENCE INVALIDATIONS:          0
cpu1_ITLB COHERENCE WRITE-HIT OTHER-SHARER EVENTS:          0
cpu1_DTLB COHERENCE INVALIDATIONS:          0
cpu1_DTLB COHERENCE WRITE-HIT OTHER-SHARER EVENTS:          0
cpu0->cpu0_STLB TOTAL        ACCESS:    2220807 HIT:    2024596 MISS:     196211 MSHR_MERGE:          0
cpu0->cpu0_STLB LOAD         ACCESS:    2220807 HIT:    2024596 MISS:     196211 MSHR_MERGE:          0
cpu0->cpu0_STLB RFO          ACCESS:          0 HIT:          0 MISS:          0 MSHR_MERGE:          0
cpu0->cpu0_STLB PREFETCH     ACCESS:          0 HIT:          0 MISS:          0 MSHR_MERGE:          0
cpu0->cpu0_STLB WRITE        ACCESS:          0 HIT:          0 MISS:          0 MSHR_MERGE:          0
cpu0->cpu0_STLB TRANSLATION  ACCESS:          0 HIT:          0 MISS:          0 MSHR_MERGE:          0
cpu0->cpu0_STLB PREFETCH REQUESTED:          0 ISSUED:          0 USEFUL:          0 USELESS:          0
cpu0->cpu0_STLB AVERAGE MISS LATENCY: 479 cycles
cpu0_STLB COHERENCE INVALIDATIONS:          0
cpu0_STLB COHERENCE WRITE-HIT OTHER-SHARER EVENTS:          0
cpu0->cpu0_L2C TOTAL        ACCESS:    2352646 HIT:     412109 MISS:    1940537 MSHR_MERGE:          0
cpu0->cpu0_L2C LOAD         ACCESS:    1963833 HIT:     410969 MISS:    1552864 MSHR_MERGE:          0
cpu0->cpu0_L2C RFO          ACCESS:          0 HIT:          0 MISS:          0 MSHR_MERGE:          0
cpu0->cpu0_L2C PREFETCH     ACCESS:          0 HIT:          0 MISS:          0 MSHR_MERGE:          0
cpu0->cpu0_L2C WRITE        ACCESS:          0 HIT:          0 MISS:          0 MSHR_MERGE:          0
cpu0->cpu0_L2C TRANSLATION  ACCESS:     388813 HIT:       1140 MISS:     387673 MSHR_MERGE:          0
cpu0->cpu0_L2C PREFETCH REQUESTED:          0 ISSUED:          0 USEFUL:          0 USELESS:          0
cpu0->cpu0_L2C AVERAGE MISS LATENCY: 184.8 cycles
cpu0_L2C COHERENCE INVALIDATIONS:          0
cpu0_L2C COHERENCE WRITE-HIT OTHER-SHARER EVENTS:          0
cpu0->cpu0_L1I TOTAL        ACCESS:   33547901 HIT:   31414486 MISS:    2133415 MSHR_MERGE:     169582
cpu0->cpu0_L1I LOAD         ACCESS:   33547901 HIT:   31414486 MISS:    2133415 MSHR_MERGE:     169582
cpu0->cpu0_L1I RFO          ACCESS:          0 HIT:          0 MISS:          0 MSHR_MERGE:          0
cpu0->cpu0_L1I PREFETCH     ACCESS:          0 HIT:          0 MISS:          0 MSHR_MERGE:          0
cpu0->cpu0_L1I WRITE        ACCESS:          0 HIT:          0 MISS:          0 MSHR_MERGE:          0
cpu0->cpu0_L1I TRANSLATION  ACCESS:          0 HIT:          0 MISS:          0 MSHR_MERGE:          0
cpu0->cpu0_L1I PREFETCH REQUESTED:          0 ISSUED:          0 USEFUL:          0 USELESS:          0
cpu0->cpu0_L1I AVERAGE MISS LATENCY: 145.4 cycles
cpu0_L1I COHERENCE INVALIDATIONS:          0
cpu0_L1I COHERENCE WRITE-HIT OTHER-SHARER EVENTS:          0
cpu0->cpu0_L1D TOTAL        ACCESS:     392558 HIT:       3745 MISS:     388813 MSHR_MERGE:          0
cpu0->cpu0_L1D LOAD         ACCESS:          0 HIT:          0 MISS:          0 MSHR_MERGE:          0
cpu0->cpu0_L1D RFO          ACCESS:          0 HIT:          0 MISS:          0 MSHR_MERGE:          0
cpu0->cpu0_L1D PREFETCH     ACCESS:          0 HIT:          0 MISS:          0 MSHR_MERGE:          0
cpu0->cpu0_L1D WRITE        ACCESS:          0 HIT:          0 MISS:          0 MSHR_MERGE:          0
cpu0->cpu0_L1D TRANSLATION  ACCESS:     392558 HIT:       3745 MISS:     388813 MSHR_MERGE:          0
cpu0->cpu0_L1D PREFETCH REQUESTED:          0 ISSUED:          0 USEFUL:          0 USELESS:          0
cpu0->cpu0_L1D AVERAGE MISS LATENCY: 235.7 cycles
cpu0_L1D COHERENCE INVALIDATIONS:          0
cpu0_L1D COHERENCE WRITE-HIT OTHER-SHARER EVENTS:          0
cpu0->cpu0_ITLB TOTAL        ACCESS:   33010785 HIT:   30738968 MISS:    2271817 MSHR_MERGE:      51010
cpu0->cpu0_ITLB LOAD         ACCESS:   33010785 HIT:   30738968 MISS:    2271817 MSHR_MERGE:      51010
cpu0->cpu0_ITLB RFO          ACCESS:          0 HIT:          0 MISS:          0 MSHR_MERGE:          0
cpu0->cpu0_ITLB PREFETCH     ACCESS:          0 HIT:          0 MISS:          0 MSHR_MERGE:          0
cpu0->cpu0_ITLB WRITE        ACCESS:          0 HIT:          0 MISS:          0 MSHR_MERGE:          0
cpu0->cpu0_ITLB TRANSLATION  ACCESS:          0 HIT:          0 MISS:          0 MSHR_MERGE:          0
cpu0->cpu0_ITLB PREFETCH REQUESTED:          0 ISSUED:          0 USEFUL:          0 USELESS:          0
cpu0->cpu0_ITLB AVERAGE MISS LATENCY: 46.41 cycles
cpu0_ITLB COHERENCE INVALIDATIONS:          0
cpu0_ITLB COHERENCE WRITE-HIT OTHER-SHARER EVENTS:          0
cpu0_DTLB COHERENCE INVALIDATIONS:          0
cpu0_DTLB COHERENCE WRITE-HIT OTHER-SHARER EVENTS:          0
cpu0->LLC TOTAL        ACCESS:    1940537 HIT:     354508 MISS:    1586029 MSHR_MERGE:     369169
cpu0->LLC LOAD         ACCESS:    1552864 HIT:     354304 MISS:    1198560 MSHR_MERGE:     369169
cpu0->LLC RFO          ACCESS:          0 HIT:          0 MISS:          0 MSHR_MERGE:          0
cpu0->LLC PREFETCH     ACCESS:          0 HIT:          0 MISS:          0 MSHR_MERGE:          0
cpu0->LLC WRITE        ACCESS:          0 HIT:          0 MISS:          0 MSHR_MERGE:          0
cpu0->LLC TRANSLATION  ACCESS:     387673 HIT:        204 MISS:     387469 MSHR_MERGE:          0
cpu0->LLC PREFETCH REQUESTED:          0 ISSUED:          0 USEFUL:          0 USELESS:          0
cpu0->LLC AVERAGE MISS LATENCY: 924.5 cycles
cpu3->LLC TOTAL        ACCESS:    7967911 HIT:    6937901 MISS:    1030010 MSHR_MERGE:       5681
cpu3->LLC LOAD         ACCESS:     894768 HIT:     457893 MISS:     436875 MSHR_MERGE:       5496
cpu3->LLC RFO          ACCESS:    3517705 HIT:    3210120 MISS:     307585 MSHR_MERGE:        185
cpu3->LLC PREFETCH     ACCESS:          0 HIT:          0 MISS:          0 MSHR_MERGE:          0
cpu3->LLC WRITE        ACCESS:    3555438 HIT:    3269888 MISS:     285550 MSHR_MERGE:          0
cpu3->LLC TRANSLATION  ACCESS:          0 HIT:          0 MISS:          0 MSHR_MERGE:          0
cpu3->LLC PREFETCH REQUESTED:          0 ISSUED:          0 USEFUL:          0 USELESS:          0
cpu3->LLC AVERAGE MISS LATENCY: 726.1 cycles
cpu4->LLC TOTAL        ACCESS:    1941937 HIT:     361887 MISS:    1580050 MSHR_MERGE:     790845
cpu4->LLC LOAD         ACCESS:    1554145 HIT:     361613 MISS:    1192532 MSHR_MERGE:     790845
cpu4->LLC RFO          ACCESS:          0 HIT:          0 MISS:          0 MSHR_MERGE:          0
cpu4->LLC PREFETCH     ACCESS:          0 HIT:          0 MISS:          0 MSHR_MERGE:          0
cpu4->LLC WRITE        ACCESS:          0 HIT:          0 MISS:          0 MSHR_MERGE:          0
cpu4->LLC TRANSLATION  ACCESS:     387792 HIT:        274 MISS:     387518 MSHR_MERGE:          0
cpu4->LLC PREFETCH REQUESTED:          0 ISSUED:          0 USEFUL:          0 USELESS:          0
cpu4->LLC AVERAGE MISS LATENCY: 607.1 cycles
cpu7->LLC TOTAL        ACCESS:    7596847 HIT:    6644384 MISS:     952463 MSHR_MERGE:      17553
cpu7->LLC LOAD         ACCESS:     850965 HIT:     443084 MISS:     407881 MSHR_MERGE:      17035
cpu7->LLC RFO          ACCESS:    3355193 HIT:    3076780 MISS:     278413 MSHR_MERGE:        518
cpu7->LLC PREFETCH     ACCESS:          0 HIT:          0 MISS:          0 MSHR_MERGE:          0
cpu7->LLC WRITE        ACCESS:    3390689 HIT:    3124520 MISS:     266169 MSHR_MERGE:          0
cpu7->LLC TRANSLATION  ACCESS:          0 HIT:          0 MISS:          0 MSHR_MERGE:          0
cpu7->LLC PREFETCH REQUESTED:          0 ISSUED:          0 USEFUL:          0 USELESS:          0
cpu7->LLC AVERAGE MISS LATENCY: 776.4 cycles
LLC COHERENCE INVALIDATIONS:    6596104
LLC COHERENCE WRITE-HIT OTHER-SHARER EVENTS:    6390337

DRAM Statistics

Channel 0 RQ ROW_BUFFER_HIT:      47665
  ROW_BUFFER_MISS:    3356129
  AVG DBUS CONGESTED CYCLE: 9.39
Channel 0 WQ ROW_BUFFER_HIT:     179091
  ROW_BUFFER_MISS:     405384
  FULL:         58
Channel 0 REFRESHES ISSUED:      24180

VMEM ALIASED FILLS (cross-CPU shared-page hits): 303801
